DAR-DIA-23aa0b97-6
     RDKit          3D

 18 19  0  0  0  0  0  0  0  0999 V2000
   13.7750   -1.8390   20.9730 N   0  0  0  0  0  0  0  0  0  0  0  0
   13.1400   -1.3090   21.7230 C   0  0  0  0  0  0  0  0  0  0  0  0
   12.2200   -0.6400   22.5140 C   0  0  0  0  0  0  0  0  0  0  0  0
   12.5670    0.2950   23.4440 C   0  0  0  0  0  0  0  0  0  0  0  0
   10.9020   -0.9440   22.3140 C   0  0  0  0  0  0  0  0  0  0  0  0
   11.6540    0.9410   24.1880 N   0  0  0  0  0  0  0  0  0  0  0  0
    9.9420   -0.3030   23.0500 C   0  0  0  0  0  0  0  0  0  0  0  0
   10.3550    0.6310   23.9820 C   0  0  0  0  0  0  0  0  0  0  0  0
    8.6450   -0.6680   22.7530 N   0  0  0  0  0  0  0  0  0  0  0  0
    8.0540   -0.1200   21.6520 C   0  0  0  0  0  0  0  0  0  0  0  0
    8.4620    0.8900   21.0830 O   0  0  0  0  0  0  0  0  0  0  0  0
    6.8230   -0.8260   21.1430 C   0  0  0  0  0  0  0  0  0  0  0  0
    6.2220   -0.0580   20.0160 C   0  0  0  0  0  0  0  0  0  0  0  0
    5.0380    0.6640   20.1660 C   0  0  0  0  0  0  0  0  0  0  0  0
    6.8370   -0.0390   18.7840 C   0  0  0  0  0  0  0  0  0  0  0  0
    4.5290    1.3720   19.0870 C   0  0  0  0  0  0  0  0  0  0  0  0
    6.3670    0.6380   17.7280 N   0  0  0  0  0  0  0  0  0  0  0  0
    5.2250    1.3320   17.8970 C   0  0  0  0  0  0  0  0  0  0  0  0
  1  2  3  0
  2  3  1  0
  3  4  2  0
  3  5  1  0
  4  6  1  0
  5  7  2  0
  6  8  2  0
  7  8  1  0
  7  9  1  0
  9 10  1  0
 10 11  2  0
 10 12  1  0
 12 13  1  0
 13 14  2  0
 13 15  1  0
 14 16  1  0
 15 17  2  0
 16 18  2  0
 17 18  1  0
M  END
>  <minimized2hits_rmsd>  (1) 
0.706954

>  <reference2hits_rmsd>  (1) 
0.683325

>  <reference2minimized_rmsd>  (1) 
0.620761

>  <smiles>  (1) 
N#Cc1cncc(NC(=O)Cc2cccnc2)c1

>  <error>  (1) 


>  <mode>  (1) 
expansion

>  <∆∆G>  (1) 
-5.414977

>  <∆G_bound>  (1) 
-4.848475

>  <∆G_unbound>  (1) 
0.566502

>  <comRMSD>  (1) 
0.706954

>  <N_constrained_atoms>  (1) 
19

>  <N_unconstrained_atoms>  (1) 
0

>  <runtime>  (1) 
49.58114

>  <regarded>  (1) 
['x0305', 'x0434']

>  <disregarded>  (1) 
[]

>  <rdock>  (1) 
7.070663

>  <n_inspirations>  (1) 
2

>  <crystal_code>  (1) 
x10178

>  <fraction_overlapping>  (1) 
1.0

>  <rdock_free>  (1) 
5.690688

>  <rdock_free_top10>  (1) 
5.690688

>  <rdock_pharm>  (1) 
nan

>  <rdock_pharm_top10>  (1) 
nan

>  <old_RMSD>  (1) 
7.114768

>  <filtered_reference2minimized_rmsd>  (1) 
0.620761

>  <based_on_x0434>  (1) 
True

>  <overlap_%>  (1) 
100.0

$$$$
DAR-DIA-23aa0b97-13
     RDKit          3D

 18 19  0  0  0  0  0  0  0  0999 V2000
    3.5640    1.9380   19.9340 N   0  0  0  0  0  0  0  0  0  0  0  0
    4.3830    1.4620   19.2700 C   0  0  0  0  0  0  0  0  0  0  0  0
    5.0830    1.1790   18.0440 C   0  0  0  0  0  0  0  0  0  0  0  0
    5.0820    0.7730   20.2920 C   0  0  0  0  0  0  0  0  0  0  0  0
    6.1730    0.4210   17.8360 N   0  0  0  0  0  0  0  0  0  0  0  0
    6.2250   -0.0210   20.1230 C   0  0  0  0  0  0  0  0  0  0  0  0
    6.7250   -0.1640   18.8790 C   0  0  0  0  0  0  0  0  0  0  0  0
    6.8230   -0.6270   21.2260 N   0  0  0  0  0  0  0  0  0  0  0  0
    8.0680   -0.1830   21.5910 C   0  0  0  0  0  0  0  0  0  0  0  0
    8.5590    0.8480   21.1510 O   0  0  0  0  0  0  0  0  0  0  0  0
    8.7110   -0.9810   22.4850 N   0  0  0  0  0  0  0  0  0  0  0  0
   10.0140   -0.6470   22.7760 C   0  0  0  0  0  0  0  0  0  0  0  0
   10.3840    0.3670   23.8080 C   0  0  0  0  0  0  0  0  0  0  0  0
   11.0050   -1.2710   22.0620 C   0  0  0  0  0  0  0  0  0  0  0  0
   11.8420    0.6270   23.9610 C   0  0  0  0  0  0  0  0  0  0  0  0
   12.3190   -0.9690   22.2760 C   0  0  0  0  0  0  0  0  0  0  0  0
   12.7650   -0.0470   23.1940 C   0  0  0  0  0  0  0  0  0  0  0  0
   13.3740   -1.8180   21.2930 Cl  0  0  0  0  0  0  0  0  0  0  0  0
  1  2  1  0
  2  3  2  0
  2  4  1  0
  3  5  1  0
  4  6  2  0
  5  7  2  0
  6  7  1  0
  6  8  1  0
  8  9  1  0
  9 10  2  0
  9 11  1  0
 11 12  1  0
 12 13  2  0
 12 14  1  0
 13 15  1  0
 14 16  2  0
 15 17  2  0
 16 17  1  0
 16 18  1  0
M  END
>  <minimized2hits_rmsd>  (2) 
0.942599

>  <reference2hits_rmsd>  (2) 
0.659569

>  <reference2minimized_rmsd>  (2) 
0.62468

>  <smiles>  (2) 
Nc1cncc(NC(=O)Nc2cccc(Cl)c2)c1

>  <error>  (2) 


>  <mode>  (2) 
expansion

>  <∆∆G>  (2) 
-5.735418

>  <∆G_bound>  (2) 
-5.145457

>  <∆G_unbound>  (2) 
0.589962

>  <comRMSD>  (2) 
0.942599

>  <N_constrained_atoms>  (2) 
21

>  <N_unconstrained_atoms>  (2) 
0

>  <runtime>  (2) 
77.612731

>  <regarded>  (2) 
['x0104', 'x0995', 'x0434']

>  <disregarded>  (2) 
[]

>  <rdock>  (2) 
7.057672

>  <n_inspirations>  (2) 
3

>  <crystal_code>  (2) 
x2964

>  <fraction_overlapping>  (2) 
1.0

>  <rdock_free>  (2) 
7.729285

>  <rdock_free_top10>  (2) 
6.88201

>  <rdock_pharm>  (2) 
nan

>  <rdock_pharm_top10>  (2) 
nan

>  <old_RMSD>  (2) 
0.779917

>  <filtered_reference2minimized_rmsd>  (2) 
0.62468

>  <based_on_x0434>  (2) 
True

>  <overlap_%>  (2) 
100.0

$$$$
DAR-DIA-23aa0b97-14
     RDKit          3D

 17 18  0  0  0  0  0  0  0  0999 V2000
    8.5720    0.8800   21.1320 O   0  0  0  0  0  0  0  0  0  0  0  0
    8.0500   -0.1030   21.6410 C   0  0  0  0  0  0  0  0  0  0  0  0
    6.8050   -0.5500   21.2940 N   0  0  0  0  0  0  0  0  0  0  0  0
    8.6530   -0.8440   22.6090 N   0  0  0  0  0  0  0  0  0  0  0  0
    6.1350    0.0570   20.2340 C   0  0  0  0  0  0  0  0  0  0  0  0
    9.9880   -0.5760   22.8030 C   0  0  0  0  0  0  0  0  0  0  0  0
    4.9530    0.7600   20.3180 C   0  0  0  0  0  0  0  0  0  0  0  0
    6.7290   -0.0510   18.9910 C   0  0  0  0  0  0  0  0  0  0  0  0
   10.3610    0.4800   23.7810 C   0  0  0  0  0  0  0  0  0  0  0  0
   10.9870   -1.2120   22.1280 C   0  0  0  0  0  0  0  0  0  0  0  0
    4.4240    1.3330   19.1650 C   0  0  0  0  0  0  0  0  0  0  0  0
    6.2480    0.4850   17.8640 N   0  0  0  0  0  0  0  0  0  0  0  0
   11.6980    0.7850   23.9660 C   0  0  0  0  0  0  0  0  0  0  0  0
   12.2810   -0.8650   22.3600 C   0  0  0  0  0  0  0  0  0  0  0  0
    5.1020    1.1730   17.9770 C   0  0  0  0  0  0  0  0  0  0  0  0
   12.6720    0.1130   23.2560 C   0  0  0  0  0  0  0  0  0  0  0  0
   13.3910   -1.7210   21.4440 Cl  0  0  0  0  0  0  0  0  0  0  0  0
  1  2  2  0
  2  3  1  0
  2  4  1  0
  3  5  1  0
  4  6  1  0
  5  7  2  0
  5  8  1  0
  6  9  2  0
  6 10  1  0
  7 11  1  0
  8 12  2  0
  9 13  1  0
 10 14  2  0
 11 15  2  0
 12 15  1  0
 13 16  2  0
 14 16  1  0
 14 17  1  0
M  END
>  <minimized2hits_rmsd>  (3) 
0.908629

>  <reference2hits_rmsd>  (3) 
0.692164

>  <reference2minimized_rmsd>  (3) 
0.491152

>  <smiles>  (3) 
O=C(Nc1cccnc1)Nc1cccc(Cl)c1

>  <error>  (3) 


>  <mode>  (3) 
expansion

>  <∆∆G>  (3) 
-6.210293

>  <∆G_bound>  (3) 
-5.730187

>  <∆G_unbound>  (3) 
0.480107

>  <comRMSD>  (3) 
0.908629

>  <N_constrained_atoms>  (3) 
21

>  <N_unconstrained_atoms>  (3) 
0

>  <runtime>  (3) 
62.196492

>  <regarded>  (3) 
['x0104', 'x0995', 'x0434']

>  <disregarded>  (3) 
[]

>  <rdock>  (3) 
5.026616

>  <n_inspirations>  (3) 
3

>  <crystal_code>  (3) 
x10996

>  <fraction_overlapping>  (3) 
1.0

>  <rdock_free>  (3) 
6.086111

>  <rdock_free_top10>  (3) 
5.491743

>  <rdock_pharm>  (3) 
nan

>  <rdock_pharm_top10>  (3) 
nan

>  <old_RMSD>  (3) 
1.718833

>  <filtered_reference2minimized_rmsd>  (3) 
0.491152

>  <based_on_x0434>  (3) 
True

>  <overlap_%>  (3) 
100.0

$$$$
DAR-DIA-23aa0b97-17
     RDKit          3D

 18 19  0  0  0  0  0  0  0  0999 V2000
   13.8650   -1.5310   20.6970 N   0  0  0  0  0  0  0  0  0  0  0  0
   13.2290   -1.2490   21.5790 C   0  0  0  0  0  0  0  0  0  0  0  0
   12.2850   -0.8210   22.5000 C   0  0  0  0  0  0  0  0  0  0  0  0
   12.5850   -0.0410   23.5760 C   0  0  0  0  0  0  0  0  0  0  0  0
   10.9860   -1.2030   22.2750 C   0  0  0  0  0  0  0  0  0  0  0  0
   11.6460    0.3780   24.4380 N   0  0  0  0  0  0  0  0  0  0  0  0
    9.9940   -0.7920   23.1260 C   0  0  0  0  0  0  0  0  0  0  0  0
   10.3640    0.0020   24.2010 C   0  0  0  0  0  0  0  0  0  0  0  0
    8.5960   -1.1930   22.8470 C   0  0  0  0  0  0  0  0  0  0  0  0
    8.0900   -0.2930   21.7370 C   0  0  0  0  0  0  0  0  0  0  0  0
    8.7360    0.6990   21.4000 O   0  0  0  0  0  0  0  0  0  0  0  0
    6.8910   -0.6840   21.2000 N   0  0  0  0  0  0  0  0  0  0  0  0
    6.3150   -0.0270   20.1130 C   0  0  0  0  0  0  0  0  0  0  0  0
    5.1290    0.6890   20.2920 C   0  0  0  0  0  0  0  0  0  0  0  0
    6.8620   -0.0420   18.8590 C   0  0  0  0  0  0  0  0  0  0  0  0
    4.5590    1.3550   19.2100 C   0  0  0  0  0  0  0  0  0  0  0  0
    6.3420    0.5840   17.8040 N   0  0  0  0  0  0  0  0  0  0  0  0
    5.2010    1.2750   17.9910 C   0  0  0  0  0  0  0  0  0  0  0  0
  1  2  3  0
  2  3  1  0
  3  4  2  0
  3  5  1  0
  4  6  1  0
  5  7  2  0
  6  8  2  0
  7  8  1  0
  7  9  1  0
  9 10  1  0
 10 11  2  0
 10 12  1  0
 12 13  1  0
 13 14  2  0
 13 15  1  0
 14 16  1  0
 15 17  2  0
 16 18  2  0
 17 18  1  0
M  END
>  <minimized2hits_rmsd>  (4) 
0.594964

>  <reference2hits_rmsd>  (4) 
0.549061

>  <reference2minimized_rmsd>  (4) 
0.512378

>  <smiles>  (4) 
N#Cc1cncc(CC(=O)Nc2cccnc2)c1

>  <error>  (4) 


>  <mode>  (4) 
expansion

>  <∆∆G>  (4) 
-3.603303

>  <∆G_bound>  (4) 
-3.080014

>  <∆G_unbound>  (4) 
0.523289

>  <comRMSD>  (4) 
0.594964

>  <N_constrained_atoms>  (4) 
19

>  <N_unconstrained_atoms>  (4) 
0

>  <runtime>  (4) 
70.284395

>  <regarded>  (4) 
['x0305', 'x0434']

>  <disregarded>  (4) 
[]

>  <rdock>  (4) 
3.261701

>  <n_inspirations>  (4) 
2

>  <crystal_code>  (4) 
x2569

>  <fraction_overlapping>  (4) 
1.0

>  <rdock_free>  (4) 
5.999915

>  <rdock_free_top10>  (4) 
5.918524

>  <rdock_pharm>  (4) 
nan

>  <rdock_pharm_top10>  (4) 
nan

>  <old_RMSD>  (4) 
0.612123

>  <filtered_reference2minimized_rmsd>  (4) 
0.512378

>  <based_on_x0434>  (4) 
True

>  <overlap_%>  (4) 
100.0

$$$$
DAR-DIA-23aa0b97-20
     RDKit          3D

 20 22  0  0  0  0  0  0  0  0999 V2000
    9.2130    0.2860   21.3190 O   0  0  0  0  0  0  0  0  0  0  0  0
    8.8710   -0.8830   21.2040 C   0  0  0  0  0  0  0  0  0  0  0  0
    7.8010   -1.0820   20.3210 C   0  0  0  0  0  0  0  0  0  0  0  0
    9.4780   -1.8650   21.9240 N   0  0  0  0  0  0  0  0  0  0  0  0
    7.1830    0.0940   20.3860 C   0  0  0  0  0  0  0  0  0  0  0  0
   10.5790   -1.2880   22.4970 C   0  0  0  0  0  0  0  0  0  0  0  0
    7.8010    0.9250   21.2650 C   0  0  0  0  0  0  0  0  0  0  0  0
    6.0730    0.5840   19.7540 C   0  0  0  0  0  0  0  0  0  0  0  0
   10.5420    0.0900   22.5720 C   0  0  0  0  0  0  0  0  0  0  0  0
   11.6810   -1.9900   22.9670 C   0  0  0  0  0  0  0  0  0  0  0  0
    7.4250    2.1480   21.5800 N   0  0  0  0  0  0  0  0  0  0  0  0
    5.6870    1.8410   20.1420 C   0  0  0  0  0  0  0  0  0  0  0  0
    5.3430   -0.0370   18.8150 C   0  0  0  0  0  0  0  0  0  0  0  0
   11.5650    0.7990   23.0770 C   0  0  0  0  0  0  0  0  0  0  0  0
   12.7390   -1.2520   23.4920 C   0  0  0  0  0  0  0  0  0  0  0  0
    6.3390    2.5650   21.0010 C   0  0  0  0  0  0  0  0  0  0  0  0
    4.5180    2.5320   19.6560 C   0  0  0  0  0  0  0  0  0  0  0  0
    4.2320    0.5690   18.2990 C   0  0  0  0  0  0  0  0  0  0  0  0
   12.6650    0.1320   23.5240 C   0  0  0  0  0  0  0  0  0  0  0  0
    3.7650    1.8240   18.6880 C   0  0  0  0  0  0  0  0  0  0  0  0
  1  2  2  0
  2  3  1  0
  2  4  1  0
  3  5  1  0
  4  6  1  0
  5  7  2  0
  5  8  1  0
  6  9  2  0
  6 10  1  0
  7 11  1  0
  8 12  2  0
  8 13  1  0
  9 14  1  0
 10 15  2  0
 11 16  2  0
 12 16  1  0
 12 17  1  0
 13 18  2  0
 14 19  2  0
 15 19  1  0
 17 20  2  0
 18 20  1  0
M  END
>  <minimized2hits_rmsd>  (5) 
1.654773

>  <reference2hits_rmsd>  (5) 
1.792594

>  <reference2minimized_rmsd>  (5) 
2.389567

>  <smiles>  (5) 
O=C(Cc1cncc2ccccc12)Nc1ccccc1

>  <error>  (5) 


>  <mode>  (5) 
expansion

>  <∆∆G>  (5) 
-0.613531

>  <∆G_bound>  (5) 
-0.071033

>  <∆G_unbound>  (5) 
0.542498

>  <comRMSD>  (5) 
1.654773

>  <N_constrained_atoms>  (5) 
23

>  <N_unconstrained_atoms>  (5) 
2

>  <runtime>  (5) 
89.938799

>  <regarded>  (5) 
['x1093', 'x0434']

>  <disregarded>  (5) 
[]

>  <rdock>  (5) 
7.394043

>  <n_inspirations>  (5) 
2

>  <crystal_code>  (5) 
x2563

>  <fraction_overlapping>  (5) 
0.85

>  <rdock_free>  (5) 
6.941342

>  <rdock_free_top10>  (5) 
6.915921

>  <rdock_pharm>  (5) 
nan

>  <rdock_pharm_top10>  (5) 
nan

>  <old_RMSD>  (5) 
1.578931

>  <filtered_reference2minimized_rmsd>  (5) 
2.389567

>  <based_on_x0434>  (5) 
True

>  <overlap_%>  (5) 
85.0

$$$$
DAR-DIA-842b4336-3
     RDKit          3D

 16 17  0  0  0  0  0  0  0  0999 V2000
   13.5260   -0.2270   23.0060 C   0  0  0  0  0  0  0  0  0  0  0  0
   12.1810   -0.2020   23.0790 C   0  0  0  0  0  0  0  0  0  0  0  0
   11.4830    0.6850   23.8320 C   0  0  0  0  0  0  0  0  0  0  0  0
   11.2370   -1.3040   22.2210 S   0  0  0  0  0  0  0  0  0  0  0  0
   10.1420    0.4880   23.7090 C   0  0  0  0  0  0  0  0  0  0  0  0
    9.8600   -0.5610   22.8500 C   0  0  0  0  0  0  0  0  0  0  0  0
    8.6280   -0.9720   22.5000 N   0  0  0  0  0  0  0  0  0  0  0  0
    8.0570   -0.2170   21.5170 C   0  0  0  0  0  0  0  0  0  0  0  0
    8.4920    0.8800   21.1710 O   0  0  0  0  0  0  0  0  0  0  0  0
    6.9750   -0.7760   20.9710 N   0  0  0  0  0  0  0  0  0  0  0  0
    6.2940   -0.0620   19.9910 C   0  0  0  0  0  0  0  0  0  0  0  0
    5.0050    0.6670   20.1620 C   0  0  0  0  0  0  0  0  0  0  0  0
    6.8590   -0.0000   18.7390 C   0  0  0  0  0  0  0  0  0  0  0  0
    4.4790    1.3510   19.0720 C   0  0  0  0  0  0  0  0  0  0  0  0
    6.3440    0.6660   17.6900 N   0  0  0  0  0  0  0  0  0  0  0  0
    5.1790    1.3230   17.8750 C   0  0  0  0  0  0  0  0  0  0  0  0
  1  2  1  0
  2  3  2  0
  2  4  1  0
  3  5  1  0
  4  6  1  0
  5  6  2  0
  6  7  1  0
  7  8  1  0
  8  9  2  0
  8 10  1  0
 10 11  1  0
 11 12  2  0
 11 13  1  0
 12 14  1  0
 13 15  2  0
 14 16  2  0
 15 16  1  0
M  END
>  <minimized2hits_rmsd>  (6) 
0.591563

>  <reference2hits_rmsd>  (6) 
1.033403

>  <reference2minimized_rmsd>  (6) 
1.113277

>  <smiles>  (6) 
Cc1ccc(NC(=O)Nc2cccnc2)s1

>  <error>  (6) 


>  <mode>  (6) 
expansion

>  <∆∆G>  (6) 
-8.222273

>  <∆G_bound>  (6) 
-7.840374

>  <∆G_unbound>  (6) 
0.3819

>  <comRMSD>  (6) 
0.591563

>  <N_constrained_atoms>  (6) 
16

>  <N_unconstrained_atoms>  (6) 
0

>  <runtime>  (6) 
77.361836

>  <regarded>  (6) 
['x0434']

>  <disregarded>  (6) 
[]

>  <rdock>  (6) 
2.796876

>  <n_inspirations>  (6) 
1

>  <crystal_code>  (6) 
x2608

>  <fraction_overlapping>  (6) 
0.9375

>  <rdock_free>  (6) 
7.056662

>  <rdock_free_top10>  (6) 
2.398406

>  <rdock_pharm>  (6) 
2.24484

>  <rdock_pharm_top10>  (6) 
2.099575

>  <old_RMSD>  (6) 
0.788464

>  <filtered_reference2minimized_rmsd>  (6) 
1.113277

>  <based_on_x0434>  (6) 
True

>  <overlap_%>  (6) 
93.75

$$$$
DAR-DIA-842b4336-13
     RDKit          3D

 16 17  0  0  0  0  0  0  0  0999 V2000
    8.5200    0.7300   21.1840 O   0  0  0  0  0  0  0  0  0  0  0  0
    7.9220   -0.2520   21.6060 C   0  0  0  0  0  0  0  0  0  0  0  0
    8.4220   -0.9220   22.7290 C   0  0  0  0  0  0  0  0  0  0  0  0
    6.7780   -0.7550   21.0720 N   0  0  0  0  0  0  0  0  0  0  0  0
    9.6530   -0.4690   23.0000 C   0  0  0  0  0  0  0  0  0  0  0  0
    6.1530   -0.0380   20.0680 C   0  0  0  0  0  0  0  0  0  0  0  0
    9.9290    0.5950   23.8630 C   0  0  0  0  0  0  0  0  0  0  0  0
   11.0080   -1.1810   22.2550 S   0  0  0  0  0  0  0  0  0  0  0  0
    4.8760    0.7250   20.1750 C   0  0  0  0  0  0  0  0  0  0  0  0
    6.7780   -0.0100   18.8450 C   0  0  0  0  0  0  0  0  0  0  0  0
   11.2470    0.8550   23.9100 C   0  0  0  0  0  0  0  0  0  0  0  0
   11.9770   -0.0750   23.0380 C   0  0  0  0  0  0  0  0  0  0  0  0
    4.4210    1.4030   19.0500 C   0  0  0  0  0  0  0  0  0  0  0  0
    6.3250    0.6480   17.7660 N   0  0  0  0  0  0  0  0  0  0  0  0
   13.5570   -0.1890   22.7130 Cl  0  0  0  0  0  0  0  0  0  0  0  0
    5.1710    1.3360   17.8910 C   0  0  0  0  0  0  0  0  0  0  0  0
  1  2  2  0
  2  3  1  0
  2  4  1  0
  3  5  1  0
  4  6  1  0
  5  7  2  0
  5  8  1  0
  6  9  2  0
  6 10  1  0
  7 11  1  0
  8 12  1  0
 11 12  2  0
  9 13  1  0
 10 14  2  0
 12 15  1  0
 13 16  2  0
 14 16  1  0
M  END
>  <minimized2hits_rmsd>  (7) 
0.687104

>  <reference2hits_rmsd>  (7) 
0.660016

>  <reference2minimized_rmsd>  (7) 
0.612145

>  <smiles>  (7) 
O=C(Cc1ccc(Cl)s1)Nc1cccnc1

>  <error>  (7) 


>  <mode>  (7) 
expansion

>  <∆∆G>  (7) 
-5.0524

>  <∆G_bound>  (7) 
-4.651186

>  <∆G_unbound>  (7) 
0.401214

>  <comRMSD>  (7) 
0.687104

>  <N_constrained_atoms>  (7) 
16

>  <N_unconstrained_atoms>  (7) 
0

>  <runtime>  (7) 
55.075153

>  <regarded>  (7) 
['x0434']

>  <disregarded>  (7) 
[]

>  <rdock>  (7) 
2.936684

>  <n_inspirations>  (7) 
1

>  <crystal_code>  (7) 
x2643

>  <fraction_overlapping>  (7) 
1.0

>  <rdock_free>  (7) 
6.064245

>  <rdock_free_top10>  (7) 
5.370567

>  <rdock_pharm>  (7) 
2.318712

>  <rdock_pharm_top10>  (7) 
1.683443

>  <old_RMSD>  (7) 
1.301014

>  <filtered_reference2minimized_rmsd>  (7) 
0.612145

>  <based_on_x0434>  (7) 
True

>  <overlap_%>  (7) 
100.0

$$$$
WAR-XCH-eb7b662f-7
     RDKit          3D

 17 18  0  0  0  0  0  0  0  0999 V2000
    8.6290    1.1480   21.1460 O   0  0  0  0  0  0  0  0  0  0  0  0
    8.1420    0.0700   21.5280 C   0  0  0  0  0  0  0  0  0  0  0  0
    7.0630   -0.5570   20.9550 N   0  0  0  0  0  0  0  0  0  0  0  0
    8.6530   -0.6420   22.5810 N   0  0  0  0  0  0  0  0  0  0  0  0
    6.3400    0.0990   19.9640 C   0  0  0  0  0  0  0  0  0  0  0  0
    9.9980   -0.4750   22.7850 C   0  0  0  0  0  0  0  0  0  0  0  0
    5.1510    0.7680   20.1530 C   0  0  0  0  0  0  0  0  0  0  0  0
    6.8730    0.0850   18.6970 C   0  0  0  0  0  0  0  0  0  0  0  0
   10.4560    0.5590   23.7500 C   0  0  0  0  0  0  0  0  0  0  0  0
   10.9290   -1.2040   22.1160 C   0  0  0  0  0  0  0  0  0  0  0  0
    4.5530    1.4030   19.0720 C   0  0  0  0  0  0  0  0  0  0  0  0
    6.3300    0.6870   17.6330 N   0  0  0  0  0  0  0  0  0  0  0  0
   11.8160    0.7560   23.9270 C   0  0  0  0  0  0  0  0  0  0  0  0
   12.2580   -0.9590   22.3370 C   0  0  0  0  0  0  0  0  0  0  0  0
    5.1790    1.3390   17.8440 C   0  0  0  0  0  0  0  0  0  0  0  0
   12.7280    0.0020   23.2250 C   0  0  0  0  0  0  0  0  0  0  0  0
   13.3170   -1.8970   21.4400 Cl  0  0  0  0  0  0  0  0  0  0  0  0
  1  2  2  0
  2  3  1  0
  2  4  1  0
  3  5  1  0
  4  6  1  0
  5  7  2  0
  5  8  1  0
  6  9  2  0
  6 10  1  0
  7 11  1  0
  8 12  2  0
  9 13  1  0
 10 14  2  0
 11 15  2  0
 12 15  1  0
 13 16  2  0
 14 16  1  0
 14 17  1  0
M  END
>  <minimized2hits_rmsd>  (8) 
0.7289

>  <reference2hits_rmsd>  (8) 
0.448081

>  <reference2minimized_rmsd>  (8) 
0.457587

>  <smiles>  (8) 
O=C(Nc1cccnc1)Nc1cccc(Cl)c1

>  <error>  (8) 


>  <mode>  (8) 
expansion

>  <∆∆G>  (8) 
-7.095147

>  <∆G_bound>  (8) 
-6.550111

>  <∆G_unbound>  (8) 
0.545036

>  <comRMSD>  (8) 
0.7289

>  <N_constrained_atoms>  (8) 
18

>  <N_unconstrained_atoms>  (8) 
0

>  <runtime>  (8) 
52.764303

>  <regarded>  (8) 
['x0305', 'x0434']

>  <disregarded>  (8) 
[]

>  <rdock>  (8) 
3.160064

>  <n_inspirations>  (8) 
2

>  <crystal_code>  (8) 
x10996

>  <fraction_overlapping>  (8) 
1.0

>  <rdock_free>  (8) 
6.066687

>  <rdock_free_top10>  (8) 
2.630992

>  <rdock_pharm>  (8) 
nan

>  <rdock_pharm_top10>  (8) 
nan

>  <old_RMSD>  (8) 
1.644605

>  <filtered_reference2minimized_rmsd>  (8) 
0.457587

>  <based_on_x0434>  (8) 
True

>  <overlap_%>  (8) 
100.0

$$$$
TRY-UNI-714a760b-3
     RDKit          3D

 19 20  0  0  0  0  0  0  0  0999 V2000
    5.8890   -1.3110   21.1290 C   0  0  0  0  0  0  0  0  0  0  0  0
    5.8180   -0.3980   20.0570 C   0  0  0  0  0  0  0  0  0  0  0  0
    4.7550    0.3540   19.5750 C   0  0  0  0  0  0  0  0  0  0  0  0
    6.9790   -0.2730   19.4500 C   0  0  0  0  0  0  0  0  0  0  0  0
    3.5160    0.3530   20.1430 N   0  0  0  0  0  0  0  0  0  0  0  0
    4.9350    1.1560   18.4660 C   0  0  0  0  0  0  0  0  0  0  0  0
    7.0680    0.5440   18.3680 C   0  0  0  0  0  0  0  0  0  0  0  0
    7.9910   -1.0190   20.0580 N   0  0  0  0  0  0  0  0  0  0  0  0
    6.0810    1.2600   17.8310 N   0  0  0  0  0  0  0  0  0  0  0  0
    8.4910   -0.4950   21.2450 C   0  0  0  0  0  0  0  0  0  0  0  0
    8.3270    0.6770   21.5520 O   0  0  0  0  0  0  0  0  0  0  0  0
    9.2960   -1.3420   22.1640 C   0  0  0  0  0  0  0  0  0  0  0  0
   10.4940   -0.7240   22.4350 C   0  0  0  0  0  0  0  0  0  0  0  0
   11.7260   -1.3410   22.2870 C   0  0  0  0  0  0  0  0  0  0  0  0
   10.4100    0.5920   22.8470 C   0  0  0  0  0  0  0  0  0  0  0  0
   12.8750   -0.6100   22.5640 C   0  0  0  0  0  0  0  0  0  0  0  0
   11.5400    1.3120   23.1030 C   0  0  0  0  0  0  0  0  0  0  0  0
   12.7880    0.7170   22.9720 C   0  0  0  0  0  0  0  0  0  0  0  0
   11.2990    2.9450   23.5460 Cl  0  0  0  0  0  0  0  0  0  0  0  0
  1  2  1  0
  2  3  2  0
  2  4  1  0
  3  5  1  0
  3  6  1  0
  4  7  2  0
  4  8  1  0
  6  9  2  0
  7  9  1  0
  8 10  1  0
 10 11  2  0
 10 12  1  0
 12 13  1  0
 13 14  2  0
 13 15  1  0
 14 16  1  0
 15 17  2  0
 16 18  2  0
 17 18  1  0
 17 19  1  0
M  END
>  <minimized2hits_rmsd>  (9) 
1.133244

>  <reference2hits_rmsd>  (9) 
1.842223

>  <reference2minimized_rmsd>  (9) 
2.029257

>  <smiles>  (9) 
Cc1c(N)cncc1NC(=O)Cc1cccc(Cl)c1

>  <error>  (9) 


>  <mode>  (9) 
expansion

>  <∆∆G>  (9) 
-4.458114

>  <∆G_bound>  (9) 
-4.166418

>  <∆G_unbound>  (9) 
0.291695

>  <comRMSD>  (9) 
1.133244

>  <N_constrained_atoms>  (9) 
22

>  <N_unconstrained_atoms>  (9) 
2

>  <runtime>  (9) 
867.95635

>  <regarded>  (9) 
['x1382', 'x0434']

>  <disregarded>  (9) 
['x0995']

>  <rdock>  (9) 
5.050877

>  <n_inspirations>  (9) 
2

>  <crystal_code>  (9) 
x11317

>  <fraction_overlapping>  (9) 
0.894737

>  <rdock_free>  (9) 
5.931746

>  <rdock_free_top10>  (9) 
2.530848

>  <rdock_pharm>  (9) 
nan

>  <rdock_pharm_top10>  (9) 
nan

>  <old_RMSD>  (9) 
1.98593

>  <filtered_reference2minimized_rmsd>  (9) 
2.029257

>  <based_on_x0434>  (9) 
True

>  <overlap_%>  (9) 
89.473684

$$$$
TRY-UNI-714a760b-6
     RDKit          3D

 18 19  0  0  0  0  0  0  0  0999 V2000
    5.7820   -1.3900   21.0570 C   0  0  0  0  0  0  0  0  0  0  0  0
    5.6560   -0.4330   20.0130 C   0  0  0  0  0  0  0  0  0  0  0  0
    4.5250    0.2110   19.5390 C   0  0  0  0  0  0  0  0  0  0  0  0
    6.8210   -0.1580   19.4500 C   0  0  0  0  0  0  0  0  0  0  0  0
    4.6460    1.0830   18.4700 C   0  0  0  0  0  0  0  0  0  0  0  0
    6.8680    0.7070   18.3950 C   0  0  0  0  0  0  0  0  0  0  0  0
    7.8460   -0.7540   20.0030 N   0  0  0  0  0  0  0  0  0  0  0  0
    5.7890    1.3430   17.8620 N   0  0  0  0  0  0  0  0  0  0  0  0
    8.4030   -0.1490   21.1390 C   0  0  0  0  0  0  0  0  0  0  0  0
    8.6600    1.0710   21.1530 O   0  0  0  0  0  0  0  0  0  0  0  0
    8.7620   -0.9120   22.3670 C   0  0  0  0  0  0  0  0  0  0  0  0
    9.9740   -0.4420   22.7450 C   0  0  0  0  0  0  0  0  0  0  0  0
   10.1410    0.6360   23.6080 C   0  0  0  0  0  0  0  0  0  0  0  0
   11.0500   -1.0740   22.2090 C   0  0  0  0  0  0  0  0  0  0  0  0
   11.4220    1.0570   23.9040 C   0  0  0  0  0  0  0  0  0  0  0  0
   12.2860   -0.6530   22.5110 C   0  0  0  0  0  0  0  0  0  0  0  0
   12.5190    0.4110   23.3540 C   0  0  0  0  0  0  0  0  0  0  0  0
   13.4670   -1.5370   21.7530 Cl  0  0  0  0  0  0  0  0  0  0  0  0
  1  2  1  0
  2  3  2  0
  2  4  1  0
  3  5  1  0
  4  6  2  0
  4  7  1  0
  5  8  2  0
  6  8  1  0
  7  9  1  0
  9 10  2  0
  9 11  1  0
 11 12  1  0
 12 13  2  0
 12 14  1  0
 13 15  1  0
 14 16  2  0
 15 17  2  0
 16 17  1  0
 16 18  1  0
M  END
>  <minimized2hits_rmsd>  (10) 
1.112385

>  <reference2hits_rmsd>  (10) 
1.113183

>  <reference2minimized_rmsd>  (10) 
1.012225

>  <smiles>  (10) 
Cc1ccncc1NC(=O)Cc1cccc(Cl)c1

>  <error>  (10) 


>  <mode>  (10) 
expansion

>  <∆∆G>  (10) 
-4.128187

>  <∆G_bound>  (10) 
-4.606751

>  <∆G_unbound>  (10) 
-0.478563

>  <comRMSD>  (10) 
1.112385

>  <N_constrained_atoms>  (10) 
22

>  <N_unconstrained_atoms>  (10) 
1

>  <runtime>  (10) 
69.574787

>  <regarded>  (10) 
['x0107', 'x1382', 'x0434']

>  <disregarded>  (10) 
[]

>  <rdock>  (10) 
7.158003

>  <n_inspirations>  (10) 
3

>  <crystal_code>  (10) 
x2646

>  <fraction_overlapping>  (10) 
1.0

>  <rdock_free>  (10) 
4.920502

>  <rdock_free_top10>  (10) 
1.811337

>  <rdock_pharm>  (10) 
nan

>  <rdock_pharm_top10>  (10) 
nan

>  <old_RMSD>  (10) 
1.611907

>  <filtered_reference2minimized_rmsd>  (10) 
1.012225

>  <based_on_x0434>  (10) 
True

>  <overlap_%>  (10) 
100.0

$$$$
TRY-UNI-714a760b-12
     RDKit          3D

 18 19  0  0  0  0  0  0  0  0999 V2000
    5.8050   -2.2810   19.7420 C   0  0  0  0  0  0  0  0  0  0  0  0
    5.8860   -0.9280   19.3340 C   0  0  0  0  0  0  0  0  0  0  0  0
    5.1140   -0.3670   18.3430 C   0  0  0  0  0  0  0  0  0  0  0  0
    6.7730   -0.1250   19.9540 C   0  0  0  0  0  0  0  0  0  0  0  0
    5.2410    0.9320   17.9810 C   0  0  0  0  0  0  0  0  0  0  0  0
    6.8380    1.1500   19.5300 C   0  0  0  0  0  0  0  0  0  0  0  0
    7.5510   -0.5090   20.9330 N   0  0  0  0  0  0  0  0  0  0  0  0
    6.0960    1.6980   18.5540 N   0  0  0  0  0  0  0  0  0  0  0  0
    8.4250    0.3920   21.5200 C   0  0  0  0  0  0  0  0  0  0  0  0
    8.7210    1.5240   21.1210 O   0  0  0  0  0  0  0  0  0  0  0  0
    8.9540   -0.1880   22.6040 N   0  0  0  0  0  0  0  0  0  0  0  0
   10.2970   -0.0120   22.7270 C   0  0  0  0  0  0  0  0  0  0  0  0
   10.7560    1.2640   23.0120 C   0  0  0  0  0  0  0  0  0  0  0  0
   11.1630   -1.0320   22.5650 C   0  0  0  0  0  0  0  0  0  0  0  0
   12.1180    1.5020   23.1400 C   0  0  0  0  0  0  0  0  0  0  0  0
   12.4740   -0.7970   22.7010 C   0  0  0  0  0  0  0  0  0  0  0  0
   12.9790    0.4530   22.9850 C   0  0  0  0  0  0  0  0  0  0  0  0
   13.4270   -2.1440   22.4950 Cl  0  0  0  0  0  0  0  0  0  0  0  0
  1  2  1  0
  2  3  2  0
  2  4  1  0
  3  5  1  0
  4  6  2  0
  4  7  1  0
  5  8  2  0
  6  8  1  0
  7  9  1  0
  9 10  2  0
  9 11  1  0
 11 12  1  0
 12 13  2  0
 12 14  1  0
 13 15  1  0
 14 16  2  0
 15 17  2  0
 16 17  1  0
 16 18  1  0
M  END
>  <minimized2hits_rmsd>  (11) 
1.381736

>  <reference2hits_rmsd>  (11) 
1.097308

>  <reference2minimized_rmsd>  (11) 
1.369956

>  <smiles>  (11) 
Cc1ccncc1NC(=O)Nc1cccc(Cl)c1

>  <error>  (11) 


>  <mode>  (11) 
expansion

>  <∆∆G>  (11) 
-5.790103

>  <∆G_bound>  (11) 
-5.179894

>  <∆G_unbound>  (11) 
0.610208

>  <comRMSD>  (11) 
1.381736

>  <N_constrained_atoms>  (11) 
23

>  <N_unconstrained_atoms>  (11) 
1

>  <runtime>  (11) 
74.346993

>  <regarded>  (11) 
['x0107', 'x1382', 'x0434']

>  <disregarded>  (11) 
[]

>  <rdock>  (11) 
3.273217

>  <n_inspirations>  (11) 
3

>  <crystal_code>  (11) 
x2908

>  <fraction_overlapping>  (11) 
1.0

>  <rdock_free>  (11) 
7.079277

>  <rdock_free_top10>  (11) 
1.630653

>  <rdock_pharm>  (11) 
nan

>  <rdock_pharm_top10>  (11) 
nan

>  <old_RMSD>  (11) 
1.738928

>  <filtered_reference2minimized_rmsd>  (11) 
1.369956

>  <based_on_x0434>  (11) 
True

>  <overlap_%>  (11) 
100.0

$$$$
TRY-UNI-714a760b-16
     RDKit          3D

 18 19  0  0  0  0  0  0  0  0999 V2000
    5.7490   -2.0810   19.1030 C   0  0  0  0  0  0  0  0  0  0  0  0
    5.8330   -0.6860   19.1620 C   0  0  0  0  0  0  0  0  0  0  0  0
    5.0010    0.1730   18.4610 C   0  0  0  0  0  0  0  0  0  0  0  0
    6.8170   -0.1890   19.9800 C   0  0  0  0  0  0  0  0  0  0  0  0
    5.1690    1.5110   18.5790 C   0  0  0  0  0  0  0  0  0  0  0  0
    6.9140    1.1630   20.0350 C   0  0  0  0  0  0  0  0  0  0  0  0
    7.6220   -0.9910   20.6870 N   0  0  0  0  0  0  0  0  0  0  0  0
    6.1040    2.0120   19.3510 N   0  0  0  0  0  0  0  0  0  0  0  0
    8.6400   -0.5750   21.5470 C   0  0  0  0  0  0  0  0  0  0  0  0
    9.0940    0.5640   21.5190 O   0  0  0  0  0  0  0  0  0  0  0  0
    9.1520   -1.5550   22.5570 C   0  0  2  0  0  0  0  0  0  0  0  0
    8.3340   -1.6620   23.6820 C   0  0  0  0  0  0  0  0  0  0  0  0
   10.5450   -1.1220   23.0720 C   0  0  0  0  0  0  0  0  0  0  0  0
   11.5900   -1.5240   22.2610 C   0  0  0  0  0  0  0  0  0  0  0  0
   10.6170    0.3910   23.2870 C   0  0  0  0  0  0  0  0  0  0  0  0
   12.8490   -0.9440   22.4320 C   0  0  0  0  0  0  0  0  0  0  0  0
   11.9280    0.7160   23.9390 C   0  0  0  0  0  0  0  0  0  0  0  0
   13.0010    0.1410   23.2810 C   0  0  0  0  0  0  0  0  0  0  0  0
  1  2  1  0
  2  3  2  0
  2  4  1  0
  3  5  1  0
  4  6  2  0
  4  7  1  0
  5  8  2  0
  6  8  1  0
  7  9  1  0
  9 10  2  0
  9 11  1  0
 11 12  1  1
 11 13  1  0
 13 14  1  0
 13 15  1  0
 14 16  1  0
 15 17  1  0
 16 18  1  0
 17 18  1  0
M  END
>  <minimized2hits_rmsd>  (12) 
1.299006

>  <reference2hits_rmsd>  (12) 
1.420697

>  <reference2minimized_rmsd>  (12) 
1.796476

>  <smiles>  (12) 
Cc1ccncc1NC(=O)C(C)C1CCCCC1

>  <error>  (12) 


>  <mode>  (12) 
expansion

>  <∆∆G>  (12) 
-5.55933

>  <∆G_bound>  (12) 
-5.238259

>  <∆G_unbound>  (12) 
0.321071

>  <comRMSD>  (12) 
1.299006

>  <N_constrained_atoms>  (12) 
23

>  <N_unconstrained_atoms>  (12) 
1

>  <runtime>  (12) 
74.203365

>  <regarded>  (12) 
['x0107', 'x1382', 'x0434']

>  <disregarded>  (12) 
[]

>  <rdock>  (12) 
2.129894

>  <n_inspirations>  (12) 
3

>  <crystal_code>  (12) 
x11044

>  <fraction_overlapping>  (12) 
0.888889

>  <rdock_free>  (12) 
6.815259

>  <rdock_free_top10>  (12) 
1.872861

>  <rdock_pharm>  (12) 
nan

>  <rdock_pharm_top10>  (12) 
nan

>  <old_RMSD>  (12) 
1.197696

>  <filtered_reference2minimized_rmsd>  (12) 
1.796476

>  <based_on_x0434>  (12) 
True

>  <overlap_%>  (12) 
88.888889

$$$$
TRY-UNI-714a760b-18
     RDKit          3D

 19 20  0  0  0  0  0  0  0  0999 V2000
    5.6990   -1.3680   21.1490 C   0  0  0  0  0  0  0  0  0  0  0  0
    5.6590   -0.4410   20.0810 C   0  0  0  0  0  0  0  0  0  0  0  0
    4.5630    0.2390   19.5660 C   0  0  0  0  0  0  0  0  0  0  0  0
    6.8640   -0.2440   19.5490 C   0  0  0  0  0  0  0  0  0  0  0  0
    4.7380    1.0820   18.4800 C   0  0  0  0  0  0  0  0  0  0  0  0
    6.9510    0.6000   18.4720 C   0  0  0  0  0  0  0  0  0  0  0  0
    7.8710   -0.8860   20.1340 N   0  0  0  0  0  0  0  0  0  0  0  0
    5.9100    1.2710   17.9030 N   0  0  0  0  0  0  0  0  0  0  0  0
    8.4180   -0.4020   21.3370 C   0  0  0  0  0  0  0  0  0  0  0  0
    8.7620    0.7720   21.4240 O   0  0  0  0  0  0  0  0  0  0  0  0
    8.6300   -1.2360   22.5730 C   0  0  1  0  0  0  0  0  0  0  0  0
    8.7870   -2.6150   22.3660 C   0  0  0  0  0  0  0  0  0  0  0  0
   10.0060   -0.7320   22.9400 C   0  0  0  0  0  0  0  0  0  0  0  0
   10.3210    0.1540   23.9370 C   0  0  0  0  0  0  0  0  0  0  0  0
   11.0660   -1.2980   22.0640 C   0  0  0  0  0  0  0  0  0  0  0  0
   11.6470    0.5310   24.1240 C   0  0  0  0  0  0  0  0  0  0  0  0
   12.4350   -0.8580   22.3200 C   0  0  0  0  0  0  0  0  0  0  0  0
   12.6820    0.0400   23.3360 C   0  0  0  0  0  0  0  0  0  0  0  0
   13.5310   -1.5380   21.2750 Cl  0  0  0  0  0  0  0  0  0  0  0  0
  1  2  1  0
  2  3  2  0
  2  4  1  0
  3  5  1  0
  4  6  2  0
  4  7  1  0
  5  8  2  0
  6  8  1  0
  7  9  1  0
  9 10  2  0
  9 11  1  0
 11 12  1  6
 11 13  1  0
 13 14  2  0
 13 15  1  0
 14 16  1  0
 15 17  2  0
 16 18  2  0
 17 18  1  0
 17 19  1  0
M  END
>  <minimized2hits_rmsd>  (13) 
1.075938

>  <reference2hits_rmsd>  (13) 
1.110837

>  <reference2minimized_rmsd>  (13) 
1.014524

>  <smiles>  (13) 
Cc1ccncc1NC(=O)C(C)c1cccc(Cl)c1

>  <error>  (13) 


>  <mode>  (13) 
expansion

>  <∆∆G>  (13) 
-4.529577

>  <∆G_bound>  (13) 
-5.005605

>  <∆G_unbound>  (13) 
-0.476028

>  <comRMSD>  (13) 
1.075938

>  <N_constrained_atoms>  (13) 
23

>  <N_unconstrained_atoms>  (13) 
1

>  <runtime>  (13) 
62.654237

>  <regarded>  (13) 
['x0107', 'x1382', 'x0434']

>  <disregarded>  (13) 
[]

>  <rdock>  (13) 
5.883476

>  <n_inspirations>  (13) 
3

>  <crystal_code>  (13) 
x2649

>  <fraction_overlapping>  (13) 
1.0

>  <rdock_free>  (13) 
2.10124

>  <rdock_free_top10>  (13) 
1.445111

>  <rdock_pharm>  (13) 
nan

>  <rdock_pharm_top10>  (13) 
nan

>  <old_RMSD>  (13) 
0.51899

>  <filtered_reference2minimized_rmsd>  (13) 
1.014524

>  <based_on_x0434>  (13) 
True

>  <overlap_%>  (13) 
100.0

$$$$
TRY-UNI-714a760b-19
     RDKit          3D

 20 21  0  0  0  0  0  0  0  0999 V2000
    4.8020   -0.1990   20.8940 C   0  0  0  0  0  0  0  0  0  0  0  0
    5.3770    0.1960   19.7450 C   0  0  0  0  0  0  0  0  0  0  0  0
    4.6800    0.9890   18.8700 C   0  0  0  0  0  0  0  0  0  0  0  0
    6.6350   -0.2210   19.4920 C   0  0  0  0  0  0  0  0  0  0  0  0
    3.3710    1.4360   19.0990 N   0  0  0  0  0  0  0  0  0  0  0  0
    5.2970    1.3540   17.7140 C   0  0  0  0  0  0  0  0  0  0  0  0
    7.1460    0.1830   18.3120 C   0  0  0  0  0  0  0  0  0  0  0  0
    7.3180   -1.0190   20.4410 N   0  0  0  0  0  0  0  0  0  0  0  0
    6.5250    0.9600   17.4100 N   0  0  0  0  0  0  0  0  0  0  0  0
    8.3200   -0.4660   21.2570 C   0  0  0  0  0  0  0  0  0  0  0  0
    8.5220    0.7430   21.3120 O   0  0  0  0  0  0  0  0  0  0  0  0
    9.1930   -1.3590   22.0890 C   0  0  0  0  0  0  0  0  0  0  0  0
   10.4090   -0.7780   22.4390 C   0  0  0  0  0  0  0  0  0  0  0  0
   11.6170   -1.4660   22.4000 C   0  0  0  0  0  0  0  0  0  0  0  0
   10.3870    0.5570   22.8220 C   0  0  0  0  0  0  0  0  0  0  0  0
   12.7840   -0.7960   22.7420 C   0  0  0  0  0  0  0  0  0  0  0  0
   11.5440    1.2270   23.1500 C   0  0  0  0  0  0  0  0  0  0  0  0
   12.7530    0.5440   23.1110 C   0  0  0  0  0  0  0  0  0  0  0  0
   11.4240    2.5730   23.4810 C   0  0  0  0  0  0  0  0  0  0  0  0
   11.2840    3.7080   23.6810 N   0  0  0  0  0  0  0  0  0  0  0  0
  1  2  1  0
  2  3  2  0
  2  4  1  0
  3  5  1  0
  3  6  1  0
  4  7  2  0
  4  8  1  0
  6  9  2  0
  7  9  1  0
  8 10  1  0
 10 11  2  0
 10 12  1  0
 12 13  1  0
 13 14  2  0
 13 15  1  0
 14 16  1  0
 15 17  2  0
 16 18  2  0
 17 18  1  0
 17 19  1  0
 19 20  3  0
M  END
>  <minimized2hits_rmsd>  (14) 
0.84486

>  <reference2hits_rmsd>  (14) 
1.031839

>  <reference2minimized_rmsd>  (14) 
2.295975

>  <smiles>  (14) 
Cc1c(N)cncc1NC(=O)Cc1cccc(C#N)c1

>  <error>  (14) 


>  <mode>  (14) 
expansion

>  <∆∆G>  (14) 
-5.949891

>  <∆G_bound>  (14) 
-6.27986

>  <∆G_unbound>  (14) 
-0.329969

>  <comRMSD>  (14) 
0.84486

>  <N_constrained_atoms>  (14) 
20

>  <N_unconstrained_atoms>  (14) 
3

>  <runtime>  (14) 
77.317731

>  <regarded>  (14) 
['x0107', 'x0995', 'x0434']

>  <disregarded>  (14) 
[]

>  <rdock>  (14) 
5.916091

>  <n_inspirations>  (14) 
3

>  <crystal_code>  (14) 
x11318

>  <fraction_overlapping>  (14) 
0.85

>  <rdock_free>  (14) 
6.565349

>  <rdock_free_top10>  (14) 
1.417769

>  <rdock_pharm>  (14) 
nan

>  <rdock_pharm_top10>  (14) 
nan

>  <old_RMSD>  (14) 
2.650106

>  <filtered_reference2minimized_rmsd>  (14) 
2.295975

>  <based_on_x0434>  (14) 
True

>  <overlap_%>  (14) 
85.0

$$$$
TRY-UNI-714a760b-20
     RDKit          3D

 19 20  0  0  0  0  0  0  0  0999 V2000
    4.8760    1.6630   21.5800 C   0  0  0  0  0  0  0  0  0  0  0  0
    5.3070    1.2740   20.2820 C   0  0  0  0  0  0  0  0  0  0  0  0
    4.6950    1.8060   19.1640 C   0  0  0  0  0  0  0  0  0  0  0  0
    6.3510    0.3580   20.1200 C   0  0  0  0  0  0  0  0  0  0  0  0
    5.1390    1.4130   17.9120 C   0  0  0  0  0  0  0  0  0  0  0  0
    6.7150    0.0260   18.8420 C   0  0  0  0  0  0  0  0  0  0  0  0
    6.9980   -0.1910   21.1420 N   0  0  0  0  0  0  0  0  0  0  0  0
    6.1290    0.5350   17.7230 N   0  0  0  0  0  0  0  0  0  0  0  0
    8.1930    0.2910   21.6860 C   0  0  0  0  0  0  0  0  0  0  0  0
    8.8190    1.2690   21.2310 O   0  0  0  0  0  0  0  0  0  0  0  0
    8.7580   -0.3950   22.8810 C   0  0  0  0  0  0  0  0  0  0  0  0
   10.1210   -0.3020   22.9650 C   0  0  0  0  0  0  0  0  0  0  0  0
   10.7180    0.6910   23.7190 C   0  0  0  0  0  0  0  0  0  0  0  0
   10.8890   -1.2200   22.2780 C   0  0  0  0  0  0  0  0  0  0  0  0
   12.0930    0.7430   23.7640 C   0  0  0  0  0  0  0  0  0  0  0  0
   12.2560   -1.1680   22.3290 C   0  0  0  0  0  0  0  0  0  0  0  0
   12.8780   -0.1750   23.0780 C   0  0  0  0  0  0  0  0  0  0  0  0
   12.8950   -2.1510   21.5940 C   0  0  0  0  0  0  0  0  0  0  0  0
   13.3320   -2.9970   20.9520 N   0  0  0  0  0  0  0  0  0  0  0  0
  1  2  1  0
  2  3  2  0
  2  4  1  0
  3  5  1  0
  4  6  2  0
  4  7  1  0
  5  8  2  0
  6  8  1  0
  7  9  1  0
  9 10  2  0
  9 11  1  0
 11 12  1  0
 12 13  2  0
 12 14  1  0
 13 15  1  0
 14 16  2  0
 15 17  2  0
 16 17  1  0
 16 18  1  0
 18 19  3  0
M  END
>  <minimized2hits_rmsd>  (15) 
0.731202

>  <reference2hits_rmsd>  (15) 
0.468071

>  <reference2minimized_rmsd>  (15) 
0.575091

>  <smiles>  (15) 
Cc1ccncc1NC(=O)Cc1cccc(C#N)c1

>  <error>  (15) 


>  <mode>  (15) 
expansion

>  <∆∆G>  (15) 
-6.911794

>  <∆G_bound>  (15) 
-7.280602

>  <∆G_unbound>  (15) 
-0.368808

>  <comRMSD>  (15) 
0.731202

>  <N_constrained_atoms>  (15) 
17

>  <N_unconstrained_atoms>  (15) 
3

>  <runtime>  (15) 
52.622802

>  <regarded>  (15) 
['x0107', 'x0434']

>  <disregarded>  (15) 
[]

>  <rdock>  (15) 
3.490529

>  <n_inspirations>  (15) 
2

>  <crystal_code>  (15) 
x2572

>  <fraction_overlapping>  (15) 
0.894737

>  <rdock_free>  (15) 
6.026795

>  <rdock_free_top10>  (15) 
1.882378

>  <rdock_pharm>  (15) 
2.430933

>  <rdock_pharm_top10>  (15) 
1.566796

>  <old_RMSD>  (15) 
2.838907

>  <filtered_reference2minimized_rmsd>  (15) 
0.575091

>  <based_on_x0434>  (15) 
True

>  <overlap_%>  (15) 
89.473684

$$$$
TRY-UNI-714a760b-22
     RDKit          3D

 20 21  0  0  0  0  0  0  0  0999 V2000
    5.1680    1.2360   21.8370 C   0  0  0  0  0  0  0  0  0  0  0  0
    5.5480    0.9100   20.5070 C   0  0  0  0  0  0  0  0  0  0  0  0
    4.7690    1.3310   19.4370 C   0  0  0  0  0  0  0  0  0  0  0  0
    6.7060    0.1620   20.2650 C   0  0  0  0  0  0  0  0  0  0  0  0
    5.1620    0.9930   18.1520 C   0  0  0  0  0  0  0  0  0  0  0  0
    7.0010   -0.1270   18.9570 C   0  0  0  0  0  0  0  0  0  0  0  0
    7.5230   -0.2740   21.2390 N   0  0  0  0  0  0  0  0  0  0  0  0
    6.2500    0.2760   17.8920 N   0  0  0  0  0  0  0  0  0  0  0  0
    8.5350    0.4710   21.8770 C   0  0  0  0  0  0  0  0  0  0  0  0
    9.1160    1.4330   21.3440 O   0  0  0  0  0  0  0  0  0  0  0  0
    8.9080    0.0920   23.2840 C   0  0  1  0  0  0  0  0  0  0  0  0
    8.1270   -0.9450   23.8020 C   0  0  0  0  0  0  0  0  0  0  0  0
   10.3670   -0.4520   23.3150 C   0  0  0  0  0  0  0  0  0  0  0  0
   11.0830   -0.0950   24.4250 C   0  0  0  0  0  0  0  0  0  0  0  0
   10.9440   -1.2530   22.3230 C   0  0  0  0  0  0  0  0  0  0  0  0
   12.3980   -0.5210   24.5850 C   0  0  0  0  0  0  0  0  0  0  0  0
   12.2570   -1.6900   22.4770 C   0  0  0  0  0  0  0  0  0  0  0  0
   12.9830   -1.3200   23.6090 C   0  0  0  0  0  0  0  0  0  0  0  0
   12.8270   -2.4890   21.5180 C   0  0  0  0  0  0  0  0  0  0  0  0
   13.2920   -3.1910   20.7380 N   0  0  0  0  0  0  0  0  0  0  0  0
  1  2  1  0
  2  3  2  0
  2  4  1  0
  3  5  1  0
  4  6  2  0
  4  7  1  0
  5  8  2  0
  6  8  1  0
  7  9  1  0
  9 10  2  0
  9 11  1  0
 11 12  1  6
 11 13  1  0
 13 14  2  0
 13 15  1  0
 14 16  1  0
 15 17  2  0
 16 18  2  0
 17 18  1  0
 17 19  1  0
 19 20  3  0
M  END
>  <minimized2hits_rmsd>  (16) 
0.780992

>  <reference2hits_rmsd>  (16) 
0.640484

>  <reference2minimized_rmsd>  (16) 
0.799464

>  <smiles>  (16) 
Cc1ccncc1NC(=O)C(C)c1cccc(C#N)c1

>  <error>  (16) 


>  <mode>  (16) 
expansion

>  <∆∆G>  (16) 
-7.963735

>  <∆G_bound>  (16) 
-7.746427

>  <∆G_unbound>  (16) 
0.217308

>  <comRMSD>  (16) 
0.780992

>  <N_constrained_atoms>  (16) 
18

>  <N_unconstrained_atoms>  (16) 
3

>  <runtime>  (16) 
65.276284

>  <regarded>  (16) 
['x0107', 'x0678', 'x0434']

>  <disregarded>  (16) 
[]

>  <rdock>  (16) 
6.732902

>  <n_inspirations>  (16) 
3

>  <crystal_code>  (16) 
x2912

>  <fraction_overlapping>  (16) 
0.85

>  <rdock_free>  (16) 
2.41633

>  <rdock_free_top10>  (16) 
1.549575

>  <rdock_pharm>  (16) 
2.409916

>  <rdock_pharm_top10>  (16) 
1.498438

>  <old_RMSD>  (16) 
1.95239

>  <filtered_reference2minimized_rmsd>  (16) 
0.799464

>  <based_on_x0434>  (16) 
True

>  <overlap_%>  (16) 
85.0

$$$$
ADA-UNI-f8e79267-2
     RDKit          3D

 23 24  0  0  0  0  0  0  0  0999 V2000
    9.0440   -5.8840   27.4060 C   0  0  0  0  0  0  0  0  0  0  0  0
    8.0740   -4.5170   26.8350 S   0  0  0  0  0  0  0  0  0  0  0  0
    6.8570   -5.0420   26.2570 O   0  0  0  0  0  0  0  0  0  0  0  0
    8.0430   -3.4790   27.8400 O   0  0  0  0  0  0  0  0  0  0  0  0
    9.0110   -4.0190   25.5270 N   0  0  0  0  0  0  0  0  0  0  0  0
    8.3350   -3.3630   24.4600 C   0  0  0  0  0  0  0  0  0  0  0  0
    8.1800   -1.9470   24.3200 C   0  0  0  0  0  0  0  0  0  0  0  0
    8.8090   -0.9950   23.3930 C   0  0  2  0  0  0  0  0  0  0  0  0
    8.2880   -0.4570   22.1870 C   0  0  0  0  0  0  0  0  0  0  0  0
   10.3040   -1.0030   23.1510 C   0  0  0  0  0  0  0  0  0  0  0  0
    8.9550    0.4570   21.6800 O   0  0  0  0  0  0  0  0  0  0  0  0
    7.1570   -0.8490   21.5630 N   0  0  0  0  0  0  0  0  0  0  0  0
   10.9350   -1.8780   22.2700 C   0  0  0  0  0  0  0  0  0  0  0  0
   11.0810   -0.0510   23.8340 C   0  0  0  0  0  0  0  0  0  0  0  0
    6.5580   -0.1780   20.4570 C   0  0  0  0  0  0  0  0  0  0  0  0
   12.2950   -1.8900   22.0000 C   0  0  0  0  0  0  0  0  0  0  0  0
   12.4460    0.0160   23.6270 C   0  0  0  0  0  0  0  0  0  0  0  0
    5.3350    0.7190   20.5490 C   0  0  0  0  0  0  0  0  0  0  0  0
    7.1070   -0.3270   19.1790 C   0  0  0  0  0  0  0  0  0  0  0  0
   13.0880   -0.9590   22.6520 C   0  0  0  0  0  0  0  0  0  0  0  0
    4.8770    1.3280   19.2570 C   0  0  0  0  0  0  0  0  0  0  0  0
    6.6470    0.2570   18.0360 N   0  0  0  0  0  0  0  0  0  0  0  0
    5.5670    1.0560   18.0840 C   0  0  0  0  0  0  0  0  0  0  0  0
  1  2  1  0
  2  3  2  0
  2  4  2  0
  2  5  1  0
  5  6  1  0
  6  7  1  0
  8  7  1  6
  8  9  1  0
  8 10  1  0
  9 11  2  0
  9 12  1  0
 10 13  2  0
 10 14  1  0
 12 15  1  0
 13 16  1  0
 14 17  2  0
 15 18  2  0
 15 19  1  0
 16 20  2  0
 17 20  1  0
 18 21  1  0
 19 22  2  0
 21 23  2  0
 22 23  1  0
M  END
>  <minimized2hits_rmsd>  (17) 
1.206826

>  <reference2hits_rmsd>  (17) 
2.07905

>  <reference2minimized_rmsd>  (17) 
2.739379

>  <smiles>  (17) 
CS(=O)(=O)NCCC(C(=O)Nc1cccnc1)c1ccccc1

>  <error>  (17) 


>  <mode>  (17) 
expansion

>  <∆∆G>  (17) 
-11.557653

>  <∆G_bound>  (17) 
-11.082916

>  <∆G_unbound>  (17) 
0.474737

>  <comRMSD>  (17) 
1.206826

>  <N_constrained_atoms>  (17) 
23

>  <N_unconstrained_atoms>  (17) 
3

>  <runtime>  (17) 
139.893424

>  <regarded>  (17) 
['x0072', 'x0387', 'x0678']

>  <disregarded>  (17) 
[]

>  <rdock>  (17) 
7.618146

>  <n_inspirations>  (17) 
3

>  <crystal_code>  (17) 
x10889

>  <fraction_overlapping>  (17) 
0.73913

>  <rdock_free>  (17) 
5.427737

>  <rdock_free_top10>  (17) 
2.054931

>  <rdock_pharm>  (17) 
nan

>  <rdock_pharm_top10>  (17) 
nan

>  <old_RMSD>  (17) 
2.449636

>  <filtered_reference2minimized_rmsd>  (17) 
nan

>  <based_on_x0434>  (17) 
False

>  <overlap_%>  (17) 
73.913043

$$$$
JOR-UNI-2fc98d0b-6
     RDKit          3D

 25 27  0  0  0  0  0  0  0  0999 V2000
    8.7250    1.1770   21.1910 O   0  0  0  0  0  0  0  0  0  0  0  0
    8.2300    0.1310   21.6480 C   0  0  0  0  0  0  0  0  0  0  0  0
    7.1050   -0.4880   21.1550 N   0  0  0  0  0  0  0  0  0  0  0  0
    8.7750   -0.5520   22.7150 N   0  0  0  0  0  0  0  0  0  0  0  0
    6.3520    0.1100   20.1460 C   0  0  0  0  0  0  0  0  0  0  0  0
    8.1240   -1.2310   23.7620 C   0  0  0  0  0  0  0  0  0  0  0  0
   10.1530   -0.4090   22.8620 C   0  0  0  0  0  0  0  0  0  0  0  0
    5.1590    0.7880   20.3130 C   0  0  0  0  0  0  0  0  0  0  0  0
    6.8560    0.0240   18.8720 C   0  0  0  0  0  0  0  0  0  0  0  0
    8.3640   -2.7180   23.8480 C   0  0  0  0  0  0  0  0  0  0  0  0
   10.7230    0.5620   23.6810 C   0  0  0  0  0  0  0  0  0  0  0  0
   10.9530   -1.2610   22.1490 C   0  0  0  0  0  0  0  0  0  0  0  0
    4.5330    1.3570   19.2050 C   0  0  0  0  0  0  0  0  0  0  0  0
    6.2870    0.5560   17.7880 N   0  0  0  0  0  0  0  0  0  0  0  0
    7.6760   -3.2250   25.0530 N   0  0  0  0  0  0  0  0  0  0  0  0
   12.1000    0.6700   23.7650 C   0  0  0  0  0  0  0  0  0  0  0  0
   12.3060   -1.1530   22.2350 C   0  0  0  0  0  0  0  0  0  0  0  0
    5.1360    1.2160   17.9750 C   0  0  0  0  0  0  0  0  0  0  0  0
    8.0570   -2.4750   26.2600 C   0  0  0  0  0  0  0  0  0  0  0  0
    7.8150   -4.6790   25.3070 C   0  0  0  0  0  0  0  0  0  0  0  0
   12.9020   -0.1900   23.0370 C   0  0  0  0  0  0  0  0  0  0  0  0
   13.1690   -2.2630   21.2940 Cl  0  0  0  0  0  0  0  0  0  0  0  0
    7.7630   -3.1450   27.4500 C   0  0  0  0  0  0  0  0  0  0  0  0
    8.7210   -5.0420   26.3030 C   0  0  0  0  0  0  0  0  0  0  0  0
    8.4370   -4.4150   27.5670 O   0  0  0  0  0  0  0  0  0  0  0  0
  1  2  2  0
  2  3  1  0
  2  4  1  0
  3  5  1  0
  4  6  1  0
  4  7  1  0
  5  8  2  0
  5  9  1  0
  6 10  1  0
  7 11  2  0
  7 12  1  0
  8 13  1  0
  9 14  2  0
 10 15  1  0
 11 16  1  0
 12 17  2  0
 13 18  2  0
 14 18  1  0
 15 19  1  0
 15 20  1  0
 16 21  2  0
 17 21  1  0
 17 22  1  0
 19 23  1  0
 20 24  1  0
 23 25  1  0
 24 25  1  0
M  END
>  <minimized2hits_rmsd>  (18) 
0.826517

>  <reference2hits_rmsd>  (18) 
0.90209

>  <reference2minimized_rmsd>  (18) 
1.147589

>  <smiles>  (18) 
O=C(Nc1cccnc1)N(CCN1CCOCC1)c1cccc(Cl)c1

>  <error>  (18) 


>  <mode>  (18) 
expansion

>  <∆∆G>  (18) 
-7.986008

>  <∆G_bound>  (18) 
-7.0485

>  <∆G_unbound>  (18) 
0.937508

>  <comRMSD>  (18) 
0.826517

>  <N_constrained_atoms>  (18) 
24

>  <N_unconstrained_atoms>  (18) 
5

>  <runtime>  (18) 
88.657559

>  <regarded>  (18) 
['x0387', 'x0434']

>  <disregarded>  (18) 
[]

>  <rdock>  (18) 
6.27904

>  <n_inspirations>  (18) 
2

>  <crystal_code>  (18) 
x10237

>  <fraction_overlapping>  (18) 
0.88

>  <rdock_free>  (18) 
5.286551

>  <rdock_free_top10>  (18) 
2.274345

>  <rdock_pharm>  (18) 
nan

>  <rdock_pharm_top10>  (18) 
nan

>  <old_RMSD>  (18) 
2.247057

>  <filtered_reference2minimized_rmsd>  (18) 
1.147589

>  <based_on_x0434>  (18) 
True

>  <overlap_%>  (18) 
88.0

$$$$
JOR-UNI-2fc98d0b-7
     RDKit          3D

 17 18  0  0  0  0  0  0  0  0999 V2000
    8.6220    0.8780   21.2320 O   0  0  0  0  0  0  0  0  0  0  0  0
    8.2980   -0.2510   21.5860 C   0  0  0  0  0  0  0  0  0  0  0  0
    7.1230   -0.8190   21.1650 N   0  0  0  0  0  0  0  0  0  0  0  0
    9.0910   -1.0130   22.4250 N   0  0  0  0  0  0  0  0  0  0  0  0
    6.3590   -0.1420   20.1910 C   0  0  0  0  0  0  0  0  0  0  0  0
   10.3870   -0.5380   22.6210 C   0  0  0  0  0  0  0  0  0  0  0  0
    5.1590    0.5160   20.3940 C   0  0  0  0  0  0  0  0  0  0  0  0
    6.8700   -0.1230   18.9090 C   0  0  0  0  0  0  0  0  0  0  0  0
   11.5810   -1.4330   22.6490 C   0  0  0  0  0  0  0  0  0  0  0  0
   10.5820    0.8120   22.7720 C   0  0  0  0  0  0  0  0  0  0  0  0
    4.5300    1.1620   19.3250 C   0  0  0  0  0  0  0  0  0  0  0  0
    6.2960    0.4880   17.8590 N   0  0  0  0  0  0  0  0  0  0  0  0
   12.8440   -0.8700   22.8260 C   0  0  0  0  0  0  0  0  0  0  0  0
   11.8460    1.3280   22.9270 C   0  0  0  0  0  0  0  0  0  0  0  0
    5.1370    1.1220   18.0850 C   0  0  0  0  0  0  0  0  0  0  0  0
   12.9740    0.5110   22.9620 C   0  0  0  0  0  0  0  0  0  0  0  0
   11.9680    3.0410   23.0520 Cl  0  0  0  0  0  0  0  0  0  0  0  0
  1  2  2  0
  2  3  1  0
  2  4  1  0
  3  5  1  0
  4  6  1  0
  5  7  2  0
  5  8  1  0
  6  9  2  0
  6 10  1  0
  7 11  1  0
  8 12  2  0
  9 13  1  0
 10 14  2  0
 11 15  2  0
 12 15  1  0
 13 16  2  0
 14 16  1  0
 14 17  1  0
M  END
>  <minimized2hits_rmsd>  (19) 
0.667854

>  <reference2hits_rmsd>  (19) 
1.23579

>  <reference2minimized_rmsd>  (19) 
1.710144

>  <smiles>  (19) 
O=C(Nc1cccnc1)Nc1cccc(Cl)c1

>  <error>  (19) 


>  <mode>  (19) 
expansion

>  <∆∆G>  (19) 
-7.225033

>  <∆G_bound>  (19) 
-6.744926

>  <∆G_unbound>  (19) 
0.480107

>  <comRMSD>  (19) 
0.667854

>  <N_constrained_atoms>  (19) 
16

>  <N_unconstrained_atoms>  (19) 
1

>  <runtime>  (19) 
76.878405

>  <regarded>  (19) 
['x0434']

>  <disregarded>  (19) 
[]

>  <rdock>  (19) 
7.032613

>  <n_inspirations>  (19) 
1

>  <crystal_code>  (19) 
x10996

>  <fraction_overlapping>  (19) 
0.941176

>  <rdock_free>  (19) 
6.070083

>  <rdock_free_top10>  (19) 
1.647894

>  <rdock_pharm>  (19) 
1.647883

>  <rdock_pharm_top10>  (19) 
1.588721

>  <old_RMSD>  (19) 
1.723011

>  <filtered_reference2minimized_rmsd>  (19) 
1.710144

>  <based_on_x0434>  (19) 
True

>  <overlap_%>  (19) 
94.117647

$$$$
JOR-UNI-2fc98d0b-12
     RDKit          3D

 25 27  0  0  0  0  0  0  0  0999 V2000
    7.8580   -0.3260   24.5780 O   0  0  0  0  0  0  0  0  0  0  0  0
    8.3900   -1.1420   23.8410 C   0  0  0  0  0  0  0  0  0  0  0  0
    8.4610   -2.5000   24.0720 N   0  0  0  0  0  0  0  0  0  0  0  0
    8.9990   -0.8300   22.6350 N   0  0  0  0  0  0  0  0  0  0  0  0
    8.3870   -3.2070   25.2900 C   0  0  0  0  0  0  0  0  0  0  0  0
    8.3310   -0.3700   21.4690 C   0  0  0  0  0  0  0  0  0  0  0  0
   10.3600   -0.3790   22.6940 C   0  0  0  0  0  0  0  0  0  0  0  0
    8.8820   -4.4780   25.4230 C   0  0  0  0  0  0  0  0  0  0  0  0
    7.8020   -2.6460   26.4290 C   0  0  0  0  0  0  0  0  0  0  0  0
    6.9130   -0.8290   21.2540 C   0  0  0  0  0  0  0  0  0  0  0  0
   11.4630   -1.2200   22.6140 C   0  0  0  0  0  0  0  0  0  0  0  0
   10.5930    0.9800   22.8290 C   0  0  0  0  0  0  0  0  0  0  0  0
    8.8140   -5.1640   26.6210 C   0  0  0  0  0  0  0  0  0  0  0  0
    7.7020   -3.2790   27.6320 N   0  0  0  0  0  0  0  0  0  0  0  0
    6.1800   -0.2270   20.2050 C   0  0  0  0  0  0  0  0  0  0  0  0
   12.7660   -0.6990   22.6780 C   0  0  0  0  0  0  0  0  0  0  0  0
   11.8700    1.5030   22.8790 C   0  0  0  0  0  0  0  0  0  0  0  0
    8.2180   -4.5340   27.7010 C   0  0  0  0  0  0  0  0  0  0  0  0
    6.9060    0.0950   19.0700 C   0  0  0  0  0  0  0  0  0  0  0  0
    5.3420    0.8250   20.6020 C   0  0  0  0  0  0  0  0  0  0  0  0
   12.9660    0.6660   22.8130 C   0  0  0  0  0  0  0  0  0  0  0  0
   12.0450    3.2130   23.0010 Cl  0  0  0  0  0  0  0  0  0  0  0  0
    6.1110    0.5570   18.0330 C   0  0  0  0  0  0  0  0  0  0  0  0
    4.6340    1.5070   19.6120 C   0  0  0  0  0  0  0  0  0  0  0  0
    4.9410    1.2320   18.2910 C   0  0  0  0  0  0  0  0  0  0  0  0
  1  2  2  0
  2  3  1  0
  2  4  1  0
  3  5  1  0
  4  6  1  0
  4  7  1  0
  5  8  2  0
  5  9  1  0
  6 10  1  0
  7 11  2  0
  7 12  1  0
  8 13  1  0
  9 14  2  0
 10 15  1  0
 11 16  1  0
 12 17  2  0
 13 18  2  0
 14 18  1  0
 15 19  1  0
 15 20  1  0
 16 21  2  0
 17 21  1  0
 17 22  1  0
 19 23  1  0
 20 24  1  0
 23 25  1  0
 24 25  1  0
M  END
>  <minimized2hits_rmsd>  (20) 
1.002948

>  <reference2hits_rmsd>  (20) 
6.124681

>  <reference2minimized_rmsd>  (20) 
6.78046

>  <smiles>  (20) 
O=C(Nc1cccnc1)N(CCC1CCCCC1)c1cccc(Cl)c1

>  <error>  (20) 


>  <mode>  (20) 
expansion

>  <∆∆G>  (20) 
-8.995016

>  <∆G_bound>  (20) 
-8.097812

>  <∆G_unbound>  (20) 
0.897204

>  <comRMSD>  (20) 
1.002948

>  <N_constrained_atoms>  (20) 
23

>  <N_unconstrained_atoms>  (20) 
4

>  <runtime>  (20) 
121.207004

>  <regarded>  (20) 
['x0387', 'x0434']

>  <disregarded>  (20) 
[]

>  <rdock>  (20) 
5.912388

>  <n_inspirations>  (20) 
2

>  <crystal_code>  (20) 
x10236

>  <fraction_overlapping>  (20) 
0.88

>  <rdock_free>  (20) 
3.183622

>  <rdock_free_top10>  (20) 
2.578

>  <rdock_pharm>  (20) 
nan

>  <rdock_pharm_top10>  (20) 
nan

>  <old_RMSD>  (20) 
1.935066

>  <filtered_reference2minimized_rmsd>  (20) 
6.78046

>  <based_on_x0434>  (20) 
True

>  <overlap_%>  (20) 
88.0

$$$$
DUN-NEW-f8ce3686-14
     RDKit          3D

 21 22  0  0  0  0  0  0  0  0999 V2000
    6.4770   -5.4610   26.2110 C   0  0  0  0  0  0  0  0  0  0  0  0
    8.0680   -4.6700   26.1870 S   0  0  0  0  0  0  0  0  0  0  0  0
    9.1010   -5.6790   26.1840 O   0  0  0  0  0  0  0  0  0  0  0  0
    8.0450   -3.5900   27.1440 O   0  0  0  0  0  0  0  0  0  0  0  0
    8.0880   -3.9960   24.6470 N   0  0  0  0  0  0  0  0  0  0  0  0
    8.1720   -2.5930   24.5720 C   0  0  0  0  0  0  0  0  0  0  0  0
    8.2960   -1.9260   23.3640 C   0  0  0  0  0  0  0  0  0  0  0  0
    8.8300   -0.6870   23.3130 N   0  0  0  0  0  0  0  0  0  0  0  0
    8.2970    0.1980   24.1990 C   0  0  0  0  0  0  0  0  0  0  0  0
   10.1920   -0.5340   23.0160 C   0  0  0  0  0  0  0  0  0  0  0  0
    9.0580    1.1560   24.8300 C   0  0  0  0  0  0  0  0  0  0  0  0
   10.8710    0.6310   23.3770 C   0  0  0  0  0  0  0  0  0  0  0  0
   10.9100   -1.5000   22.3730 C   0  0  0  0  0  0  0  0  0  0  0  0
   10.1820    1.7270   24.0470 C   0  0  0  0  0  0  0  0  0  0  0  0
   12.3010    0.8520   23.1210 C   0  0  0  0  0  0  0  0  0  0  0  0
   12.2480   -1.2880   22.1280 C   0  0  0  0  0  0  0  0  0  0  0  0
   12.9600   -0.1500   22.4890 C   0  0  0  0  0  0  0  0  0  0  0  0
   13.1420   -2.4780   21.3160 S   0  0  0  0  0  0  0  0  0  0  0  0
   12.0860   -3.3520   20.3960 N   0  0  0  0  0  0  0  0  0  0  0  0
   13.9690   -1.7030   20.4470 O   0  0  0  0  0  0  0  0  0  0  0  0
   13.6340   -3.3810   22.2910 O   0  0  0  0  0  0  0  0  0  0  0  0
  1  2  1  0
  2  3  2  0
  2  4  2  0
  2  5  1  0
  5  6  1  0
  6  7  1  0
  7  8  1  0
  8  9  1  0
  8 10  1  0
  9 11  1  0
 10 12  2  0
 10 13  1  0
 11 14  1  0
 12 14  1  0
 12 15  1  0
 13 16  2  0
 15 17  2  0
 16 17  1  0
 16 18  1  0
 18 19  1  0
 18 20  2  0
 18 21  2  0
M  END
>  <minimized2hits_rmsd>  (21) 
1.950225

>  <reference2hits_rmsd>  (21) 
3.85848

>  <reference2minimized_rmsd>  (21) 
5.430538

>  <smiles>  (21) 
CS(=O)(=O)NCCN1CCCc2ccc(S(N)(=O)=O)cc21

>  <error>  (21) 


>  <mode>  (21) 
expansion

>  <∆∆G>  (21) 
-5.462053

>  <∆G_bound>  (21) 
-5.596269

>  <∆G_unbound>  (21) 
-0.134216

>  <comRMSD>  (21) 
1.950225

>  <N_constrained_atoms>  (21) 
13

>  <N_unconstrained_atoms>  (21) 
8

>  <runtime>  (21) 
113.06206

>  <regarded>  (21) 
['x0072']

>  <disregarded>  (21) 
['x1458']

>  <rdock>  (21) 
8.65496

>  <n_inspirations>  (21) 
1

>  <crystal_code>  (21) 
x10049

>  <fraction_overlapping>  (21) 
0.285714

>  <rdock_free>  (21) 
5.799818

>  <rdock_free_top10>  (21) 
5.267554

>  <rdock_pharm>  (21) 
nan

>  <rdock_pharm_top10>  (21) 
nan

>  <old_RMSD>  (21) 
3.317089

>  <filtered_reference2minimized_rmsd>  (21) 
nan

>  <based_on_x0434>  (21) 
False

>  <overlap_%>  (21) 
28.571429

$$$$
ANN-UNI-26382800-5
     RDKit          3D

 18 19  0  0  0  0  0  0  0  0999 V2000
    9.1250    2.0730   25.0270 N   0  0  0  0  0  0  0  0  0  0  0  0
    9.9870    1.4840   24.5510 C   0  0  0  0  0  0  0  0  0  0  0  0
   10.8070    0.6210   23.8250 C   0  0  0  0  0  0  0  0  0  0  0  0
   12.1850    0.4840   23.6640 C   0  0  0  0  0  0  0  0  0  0  0  0
    9.9750   -0.1860   23.1980 C   0  0  0  0  0  0  0  0  0  0  0  0
   12.6710   -0.5470   22.8130 C   0  0  0  0  0  0  0  0  0  0  0  0
   10.3950   -1.1580   22.3920 C   0  0  0  0  0  0  0  0  0  0  0  0
   11.7460   -1.3880   22.1670 C   0  0  0  0  0  0  0  0  0  0  0  0
    9.2610   -1.9010   21.7920 C   0  0  0  0  0  0  0  0  0  0  0  0
    8.3720   -0.7680   21.3230 C   0  0  0  0  0  0  0  0  0  0  0  0
    8.8510    0.3580   21.2530 O   0  0  0  0  0  0  0  0  0  0  0  0
    7.0630   -1.0280   21.0070 N   0  0  0  0  0  0  0  0  0  0  0  0
    6.3370   -0.2260   20.1060 C   0  0  0  0  0  0  0  0  0  0  0  0
    5.1560    0.4730   20.3550 C   0  0  0  0  0  0  0  0  0  0  0  0
    6.8720   -0.1280   18.8480 C   0  0  0  0  0  0  0  0  0  0  0  0
    4.5940    1.2220   19.3240 C   0  0  0  0  0  0  0  0  0  0  0  0
    6.3590    0.5840   17.8360 N   0  0  0  0  0  0  0  0  0  0  0  0
    5.2240    1.2530   18.0850 C   0  0  0  0  0  0  0  0  0  0  0  0
  1  2  3  0
  2  3  1  0
  3  4  2  0
  3  5  1  0
  4  6  1  0
  5  7  2  0
  6  8  2  0
  7  8  1  0
  7  9  1  0
  9 10  1  0
 10 11  2  0
 10 12  1  0
 12 13  1  0
 13 14  2  0
 13 15  1  0
 14 16  1  0
 15 17  2  0
 16 18  2  0
 17 18  1  0
M  END
>  <minimized2hits_rmsd>  (22) 
0.90462

>  <reference2hits_rmsd>  (22) 
2.465724

>  <reference2minimized_rmsd>  (22) 
2.633724

>  <smiles>  (22) 
N#Cc1cccc(CC(=O)Nc2cccnc2)c1

>  <error>  (22) 


>  <mode>  (22) 
expansion

>  <∆∆G>  (22) 
-6.438454

>  <∆G_bound>  (22) 
-6.129927

>  <∆G_unbound>  (22) 
0.308527

>  <comRMSD>  (22) 
0.90462

>  <N_constrained_atoms>  (22) 
20

>  <N_unconstrained_atoms>  (22) 
0

>  <runtime>  (22) 
69.929145

>  <regarded>  (22) 
['x1249', 'x0434']

>  <disregarded>  (22) 
[]

>  <rdock>  (22) 
6.600561

>  <n_inspirations>  (22) 
2

>  <crystal_code>  (22) 
x2600

>  <fraction_overlapping>  (22) 
1.0

>  <rdock_free>  (22) 
7.386896

>  <rdock_free_top10>  (22) 
2.659108

>  <rdock_pharm>  (22) 
nan

>  <rdock_pharm_top10>  (22) 
nan

>  <old_RMSD>  (22) 
0.60496

>  <filtered_reference2minimized_rmsd>  (22) 
2.633724

>  <based_on_x0434>  (22) 
True

>  <overlap_%>  (22) 
100.0

$$$$
DAR-DIA-eace69ff-36
     RDKit          3D

 13 14  0  0  0  0  0  0  0  0999 V2000
   11.3270    5.6790   22.7680 C   0  0  0  0  0  0  0  0  0  0  0  0
   12.4200    4.8960   23.0980 N   0  0  0  0  0  0  0  0  0  0  0  0
   12.6230    3.5730   22.6620 C   0  0  0  0  0  0  0  0  0  0  0  0
   11.8440    2.5240   23.1340 C   0  0  0  0  0  0  0  0  0  0  0  0
   10.6840    2.6910   23.8140 C   0  0  0  0  0  0  0  0  0  0  0  0
   11.9270    1.0780   23.0910 C   0  0  0  0  0  0  0  0  0  0  0  0
   10.0530    1.5990   24.1890 N   0  0  0  0  0  0  0  0  0  0  0  0
   10.7840    0.5450   23.7570 C   0  0  0  0  0  0  0  0  0  0  0  0
   12.7970    0.1460   22.5810 C   0  0  0  0  0  0  0  0  0  0  0  0
   10.5070   -0.9280   23.9080 C   0  0  0  0  0  0  0  0  0  0  0  0
   12.6410   -1.2180   22.6440 C   0  0  0  0  0  0  0  0  0  0  0  0
   11.5660   -1.8200   23.2670 C   0  0  0  0  0  0  0  0  0  0  0  0
   13.5500   -1.9900   22.0830 F   0  0  0  0  0  0  0  0  0  0  0  0
  1  2  1  0
  2  3  1  0
  3  4  1  0
  4  5  2  0
  4  6  1  0
  5  7  1  0
  6  8  2  0
  7  8  1  0
  6  9  1  0
  8 10  1  0
  9 11  2  0
 10 12  2  0
 11 12  1  0
 11 13  1  0
M  END
>  <minimized2hits_rmsd>  (23) 
0.456636

>  <reference2hits_rmsd>  (23) 
33.109941

>  <reference2minimized_rmsd>  (23) 
33.148778

>  <smiles>  (23) 
CNCc1c[nH]c2ccc(F)cc12

>  <error>  (23) 


>  <mode>  (23) 
expansion

>  <∆∆G>  (23) 
-4.120566

>  <∆G_bound>  (23) 
-4.047405

>  <∆G_unbound>  (23) 
0.073162

>  <comRMSD>  (23) 
0.456636

>  <N_constrained_atoms>  (23) 
14

>  <N_unconstrained_atoms>  (23) 
0

>  <runtime>  (23) 
36.532137

>  <regarded>  (23) 
['x0104']

>  <disregarded>  (23) 
[]

>  <rdock>  (23) 
32.560441

>  <n_inspirations>  (23) 
1

>  <crystal_code>  (23) 
x3351

>  <fraction_overlapping>  (23) 
0.0

>  <rdock_free>  (23) 
35.366203

>  <rdock_free_top10>  (23) 
34.245253

>  <rdock_pharm>  (23) 
32.618458

>  <rdock_pharm_top10>  (23) 
32.617866

>  <old_RMSD>  (23) 
33.08371

>  <filtered_reference2minimized_rmsd>  (23) 
nan

>  <based_on_x0434>  (23) 
False

>  <overlap_%>  (23) 
0.0

$$$$
MAK-UNK-6435e6c2-1
     RDKit          3D

 17 18  0  0  0  0  0  0  0  0999 V2000
    7.0880   -2.9950   20.4670 C   0  0  0  0  0  0  0  0  0  0  0  0
    6.2040   -4.1100   20.6210 C   0  0  0  0  0  0  0  0  0  0  0  0
    5.4170   -4.4510   19.7400 O   0  0  0  0  0  0  0  0  0  0  0  0
    6.3390   -4.7920   21.8140 N   0  0  0  0  0  0  0  0  0  0  0  0
    5.5280   -5.8580   22.0940 C   0  0  0  0  0  0  0  0  0  0  0  0
    7.1020   -4.3120   22.9690 C   0  0  0  0  0  0  0  0  0  0  0  0
    4.7520   -5.7170   23.2460 C   0  0  0  0  0  0  0  0  0  0  0  0
    6.2710   -4.0390   24.0400 C   0  0  0  0  0  0  0  0  0  0  0  0
    5.4000   -5.2180   24.3260 N   0  0  0  0  0  0  0  0  0  0  0  0
    4.5700   -5.1250   25.8150 S   0  0  0  0  0  0  0  0  0  0  0  0
    5.5160   -4.6280   26.7880 O   0  0  0  0  0  0  0  0  0  0  0  0
    3.8710   -6.3780   25.9810 O   0  0  0  0  0  0  0  0  0  0  0  0
    3.3760   -3.9220   25.7170 C   0  0  0  0  0  0  0  0  0  0  0  0
    1.9090   -4.0200   25.3830 C   0  0  0  0  0  0  0  0  0  0  0  0
    3.8800   -2.3060   26.0570 S   0  0  0  0  0  0  0  0  0  0  0  0
    1.2710   -2.6560   25.4470 C   0  0  0  0  0  0  0  0  0  0  0  0
    2.3150   -1.6630   25.8150 C   0  0  0  0  0  0  0  0  0  0  0  0
  1  2  1  0
  2  3  2  0
  2  4  1  0
  4  5  1  0
  4  6  1  0
  5  7  1  0
  6  8  1  0
  7  9  1  0
  8  9  1  0
 10  9  1  0
 10 11  2  0
 10 12  2  0
 10 13  1  0
 13 14  2  0
 13 15  1  0
 14 16  1  0
 15 17  1  0
 16 17  2  0
M  END
>  <minimized2hits_rmsd>  (24) 
0.326312

>  <reference2hits_rmsd>  (24) 
1.451634

>  <reference2minimized_rmsd>  (24) 
1.49918

>  <smiles>  (24) 
CC(=O)N1CCN(S(=O)(=O)c2cccs2)CC1

>  <error>  (24) 


>  <mode>  (24) 
expansion

>  <∆∆G>  (24) 
-5.74229

>  <∆G_bound>  (24) 
-5.416339

>  <∆G_unbound>  (24) 
0.325951

>  <comRMSD>  (24) 
0.326312

>  <N_constrained_atoms>  (24) 
17

>  <N_unconstrained_atoms>  (24) 
0

>  <runtime>  (24) 
37.206742

>  <regarded>  (24) 
['x0689']

>  <disregarded>  (24) 
[]

>  <rdock>  (24) 
5.641059

>  <n_inspirations>  (24) 
1

>  <crystal_code>  (24) 
x0689

>  <fraction_overlapping>  (24) 
1.058824

>  <rdock_free>  (24) 
7.068903

>  <rdock_free_top10>  (24) 
5.834401

>  <rdock_pharm>  (24) 
2.233731

>  <rdock_pharm_top10>  (24) 
1.884074

>  <old_RMSD>  (24) 
0.378597

>  <filtered_reference2minimized_rmsd>  (24) 
1.49918

>  <based_on_x0434>  (24) 
False

>  <overlap_%>  (24) 
100.0

$$$$
MAK-UNK-6435e6c2-2
     RDKit          3D

 15 16  0  0  0  0  0  0  0  0999 V2000
    7.2050   -3.1100   20.7160 C   0  0  0  0  0  0  0  0  0  0  0  0
    6.2890   -4.2160   20.7570 C   0  0  0  0  0  0  0  0  0  0  0  0
    5.4270   -4.3830   19.8860 O   0  0  0  0  0  0  0  0  0  0  0  0
    6.4790   -5.0540   21.8420 N   0  0  0  0  0  0  0  0  0  0  0  0
    7.1270   -4.5900   22.9530 C   0  0  0  0  0  0  0  0  0  0  0  0
    5.5340   -6.1120   22.1770 C   0  0  0  0  0  0  0  0  0  0  0  0
    6.2900   -4.2650   24.0190 C   0  0  0  0  0  0  0  0  0  0  0  0
    4.6950   -5.7380   23.2360 C   0  0  0  0  0  0  0  0  0  0  0  0
    5.4190   -5.2190   24.4260 N   0  0  0  0  0  0  0  0  0  0  0  0
    4.6490   -4.9420   25.5020 C   0  0  0  0  0  0  0  0  0  0  0  0
    3.6240   -3.8450   25.6210 C   0  0  0  0  0  0  0  0  0  0  0  0
    2.1630   -4.1300   25.3610 C   0  0  0  0  0  0  0  0  0  0  0  0
    3.9090   -2.1950   26.0480 S   0  0  0  0  0  0  0  0  0  0  0  0
    1.3970   -2.8790   25.5620 C   0  0  0  0  0  0  0  0  0  0  0  0
    2.2360   -1.8210   25.9230 C   0  0  0  0  0  0  0  0  0  0  0  0
  1  2  1  0
  2  3  2  0
  2  4  1  0
  4  5  1  0
  4  6  1  0
  5  7  1  0
  6  8  1  0
  7  9  1  0
  8  9  1  0
  9 10  1  0
 10 11  1  0
 11 12  2  0
 11 13  1  0
 12 14  1  0
 13 15  1  0
 14 15  2  0
M  END
>  <minimized2hits_rmsd>  (25) 
0.365044

>  <reference2hits_rmsd>  (25) 
6.530463

>  <reference2minimized_rmsd>  (25) 
6.348549

>  <smiles>  (25) 
CC(=O)N1CCN(Cc2cccs2)CC1

>  <error>  (25) 


>  <mode>  (25) 
expansion

>  <∆∆G>  (25) 
-4.764154

>  <∆G_bound>  (25) 
-4.491041

>  <∆G_unbound>  (25) 
0.273113

>  <comRMSD>  (25) 
0.365044

>  <N_constrained_atoms>  (25) 
17

>  <N_unconstrained_atoms>  (25) 
0

>  <runtime>  (25) 
33.850165

>  <regarded>  (25) 
['x0689']

>  <disregarded>  (25) 
[]

>  <rdock>  (25) 
6.503753

>  <n_inspirations>  (25) 
1

>  <crystal_code>  (25) 
x2779

>  <fraction_overlapping>  (25) 
0.4

>  <rdock_free>  (25) 
6.224603

>  <rdock_free_top10>  (25) 
2.182081

>  <rdock_pharm>  (25) 
nan

>  <rdock_pharm_top10>  (25) 
nan

>  <old_RMSD>  (25) 
6.503014

>  <filtered_reference2minimized_rmsd>  (25) 
nan

>  <based_on_x0434>  (25) 
False

>  <overlap_%>  (25) 
40.0

$$$$
MAK-UNK-6435e6c2-3
     RDKit          3D

 15 16  0  0  0  0  0  0  0  0999 V2000
    7.1900   -3.0790   20.5190 C   0  0  0  0  0  0  0  0  0  0  0  0
    6.2690   -4.1630   20.6730 C   0  0  0  0  0  0  0  0  0  0  0  0
    5.4450   -4.4510   19.8020 O   0  0  0  0  0  0  0  0  0  0  0  0
    6.4090   -4.8710   21.8580 N   0  0  0  0  0  0  0  0  0  0  0  0
    5.5640   -5.8950   22.1710 C   0  0  0  0  0  0  0  0  0  0  0  0
    7.1100   -4.3460   23.0320 C   0  0  0  0  0  0  0  0  0  0  0  0
    4.7300   -5.6670   23.2740 C   0  0  0  0  0  0  0  0  0  0  0  0
    6.2170   -4.0860   24.0690 C   0  0  0  0  0  0  0  0  0  0  0  0
    5.3230   -5.2160   24.4120 N   0  0  0  0  0  0  0  0  0  0  0  0
    4.5230   -4.9730   25.4760 C   0  0  0  0  0  0  0  0  0  0  0  0
    3.4130   -3.9520   25.5540 C   0  0  0  0  0  0  0  0  0  0  0  0
    3.7530   -2.5070   25.8480 C   0  0  0  0  0  0  0  0  0  0  0  0
    2.0470   -4.1180   25.3960 C   0  0  0  0  0  0  0  0  0  0  0  0
    2.5120   -1.6830   25.8850 C   0  0  0  0  0  0  0  0  0  0  0  0
    1.1420   -2.6650   25.5830 S   0  0  0  0  0  0  0  0  0  0  0  0
  1  2  1  0
  2  3  2  0
  2  4  1  0
  4  5  1  0
  4  6  1  0
  5  7  1  0
  6  8  1  0
  7  9  1  0
  8  9  1  0
  9 10  1  0
 10 11  1  0
 11 12  1  0
 11 13  2  0
 12 14  2  0
 13 15  1  0
 14 15  1  0
M  END
>  <minimized2hits_rmsd>  (26) 
0.381706

>  <reference2hits_rmsd>  (26) 
6.46583

>  <reference2minimized_rmsd>  (26) 
6.288513

>  <smiles>  (26) 
CC(=O)N1CCN(Cc2ccsc2)CC1

>  <error>  (26) 


>  <mode>  (26) 
expansion

>  <∆∆G>  (26) 
-5.64169

>  <∆G_bound>  (26) 
-5.419287

>  <∆G_unbound>  (26) 
0.222403

>  <comRMSD>  (26) 
0.381706

>  <N_constrained_atoms>  (26) 
17

>  <N_unconstrained_atoms>  (26) 
0

>  <runtime>  (26) 
31.081606

>  <regarded>  (26) 
['x0689']

>  <disregarded>  (26) 
[]

>  <rdock>  (26) 
6.633918

>  <n_inspirations>  (26) 
1

>  <crystal_code>  (26) 
x1386

>  <fraction_overlapping>  (26) 
0.266667

>  <rdock_free>  (26) 
6.101517

>  <rdock_free_top10>  (26) 
6.052476

>  <rdock_pharm>  (26) 
nan

>  <rdock_pharm_top10>  (26) 
nan

>  <old_RMSD>  (26) 
6.519514

>  <filtered_reference2minimized_rmsd>  (26) 
nan

>  <based_on_x0434>  (26) 
False

>  <overlap_%>  (26) 
26.666667

$$$$
MAK-UNK-6435e6c2-4
     RDKit          3D

 16 17  0  0  0  0  0  0  0  0999 V2000
    1.3830   -3.8930   25.1600 C   0  0  0  0  0  0  0  0  0  0  0  0
    1.1820   -2.5800   25.6870 C   0  0  0  0  0  0  0  0  0  0  0  0
    0.0740   -2.0530   25.7500 O   0  0  0  0  0  0  0  0  0  0  0  0
    2.3520   -1.9890   26.1070 N   0  0  0  0  0  0  0  0  0  0  0  0
    3.3570   -2.8570   26.4010 C   0  0  0  0  0  0  0  0  0  0  0  0
    3.7620   -3.0960   27.7270 C   0  0  0  0  0  0  0  0  0  0  0  0
    3.9540   -3.4980   25.3150 C   0  0  0  0  0  0  0  0  0  0  0  0
    4.7870   -4.0100   27.9680 C   0  0  0  0  0  0  0  0  0  0  0  0
    4.9900   -4.4250   25.4690 C   0  0  0  0  0  0  0  0  0  0  0  0
    5.4780   -4.7460   26.8510 C   0  0  0  0  0  0  0  0  0  0  0  0
    5.5720   -5.0390   24.3310 N   0  0  0  0  0  0  0  0  0  0  0  0
    4.7720   -5.6970   23.2800 C   0  0  0  0  0  0  0  0  0  0  0  0
    6.7660   -4.5450   23.7660 C   0  0  0  0  0  0  0  0  0  0  0  0
    5.7220   -5.8740   22.2650 C   0  0  0  0  0  0  0  0  0  0  0  0
    6.8860   -5.2170   22.5760 C   0  0  0  0  0  0  0  0  0  0  0  0
    7.6950   -3.5630   24.2310 O   0  0  0  0  0  0  0  0  0  0  0  0
  1  2  1  0
  2  3  2  0
  2  4  1  0
  4  5  1  0
  5  6  2  0
  5  7  1  0
  6  8  1  0
  7  9  2  0
  8 10  2  0
  9 10  1  0
  9 11  1  0
 11 12  1  0
 11 13  1  0
 12 14  1  0
 13 15  1  0
 14 15  1  0
 13 16  2  0
M  END
>  <minimized2hits_rmsd>  (27) 
0.774369

>  <reference2hits_rmsd>  (27) 
5.184547

>  <reference2minimized_rmsd>  (27) 
5.829177

>  <smiles>  (27) 
CC(=O)Nc1cccc(N2CCCC2=O)c1

>  <error>  (27) 


>  <mode>  (27) 
expansion

>  <∆∆G>  (27) 
-4.037928

>  <∆G_bound>  (27) 
-3.663216

>  <∆G_unbound>  (27) 
0.374712

>  <comRMSD>  (27) 
0.774369

>  <N_constrained_atoms>  (27) 
14

>  <N_unconstrained_atoms>  (27) 
4

>  <runtime>  (27) 
25.087433

>  <regarded>  (27) 
['x0689']

>  <disregarded>  (27) 
[]

>  <rdock>  (27) 
2.877633

>  <n_inspirations>  (27) 
1

>  <crystal_code>  (27) 
x1384

>  <fraction_overlapping>  (27) 
0.9375

>  <rdock_free>  (27) 
7.410007

>  <rdock_free_top10>  (27) 
6.806608

>  <rdock_pharm>  (27) 
6.100813

>  <rdock_pharm_top10>  (27) 
3.566676

>  <old_RMSD>  (27) 
4.746187

>  <filtered_reference2minimized_rmsd>  (27) 
5.829177

>  <based_on_x0434>  (27) 
False

>  <overlap_%>  (27) 
93.75

$$$$
MAK-UNK-6435e6c2-5
     RDKit          3D

 19 20  0  0  0  0  0  0  0  0999 V2000
    6.3200   -2.8840   20.9660 C   0  0  0  0  0  0  0  0  0  0  0  0
    5.9630   -4.2540   20.7920 C   0  0  0  0  0  0  0  0  0  0  0  0
    5.3150   -4.6260   19.8170 O   0  0  0  0  0  0  0  0  0  0  0  0
    6.4190   -5.0850   21.7960 N   0  0  0  0  0  0  0  0  0  0  0  0
    7.0990   -4.5490   22.8580 C   0  0  0  0  0  0  0  0  0  0  0  0
    5.5200   -6.1560   22.2210 C   0  0  0  0  0  0  0  0  0  0  0  0
    6.3020   -4.2660   23.9550 C   0  0  0  0  0  0  0  0  0  0  0  0
    4.6770   -5.7190   23.2540 C   0  0  0  0  0  0  0  0  0  0  0  0
    5.4210   -5.2310   24.2820 N   0  0  0  0  0  0  0  0  0  0  0  0
    4.6360   -5.0990   25.7920 S   0  0  0  0  0  0  0  0  0  0  0  0
    3.8090   -6.2720   25.9530 O   0  0  0  0  0  0  0  0  0  0  0  0
    5.6530   -4.7350   26.7500 O   0  0  0  0  0  0  0  0  0  0  0  0
    3.5300   -3.8110   25.7500 C   0  0  0  0  0  0  0  0  0  0  0  0
    2.0550   -3.9500   25.4170 C   0  0  0  0  0  0  0  0  0  0  0  0
    4.1070   -2.5630   26.0700 C   0  0  0  0  0  0  0  0  0  0  0  0
    1.2300   -2.6730   25.4550 C   0  0  0  0  0  0  0  0  0  0  0  0
    3.3500   -1.4030   26.1010 C   0  0  0  0  0  0  0  0  0  0  0  0
    2.0120   -1.4580   25.8150 C   0  0  0  0  0  0  0  0  0  0  0  0
    3.9220   -0.2310   26.4100 F   0  0  0  0  0  0  0  0  0  0  0  0
  1  2  1  0
  2  3  2  0
  2  4  1  0
  4  5  1  0
  4  6  1  0
  5  7  1  0
  6  8  1  0
  7  9  1  0
  8  9  1  0
 10  9  1  0
 10 11  2  0
 10 12  2  0
 10 13  1  0
 13 14  2  0
 13 15  1  0
 14 16  1  0
 15 17  2  0
 16 18  2  0
 17 18  1  0
 17 19  1  0
M  END
>  <minimized2hits_rmsd>  (28) 
0.486403

>  <reference2hits_rmsd>  (28) 
0.515663

>  <reference2minimized_rmsd>  (28) 
0.902857

>  <smiles>  (28) 
CC(=O)N1CCN(S(=O)(=O)c2cccc(F)c2)CC1

>  <error>  (28) 


>  <mode>  (28) 
expansion

>  <∆∆G>  (28) 
-4.73396

>  <∆G_bound>  (28) 
-4.24913

>  <∆G_unbound>  (28) 
0.48483

>  <comRMSD>  (28) 
0.486403

>  <N_constrained_atoms>  (28) 
17

>  <N_unconstrained_atoms>  (28) 
2

>  <runtime>  (28) 
41.266123

>  <regarded>  (28) 
['x0689']

>  <disregarded>  (28) 
[]

>  <rdock>  (28) 
4.064317

>  <n_inspirations>  (28) 
1

>  <crystal_code>  (28) 
x0691

>  <fraction_overlapping>  (28) 
0.947368

>  <rdock_free>  (28) 
7.922919

>  <rdock_free_top10>  (28) 
6.167903

>  <rdock_pharm>  (28) 
2.413056

>  <rdock_pharm_top10>  (28) 
2.360149

>  <old_RMSD>  (28) 
0.716509

>  <filtered_reference2minimized_rmsd>  (28) 
0.902857

>  <based_on_x0434>  (28) 
False

>  <overlap_%>  (28) 
94.736842

$$$$
MAK-UNK-6435e6c2-6
     RDKit          3D

 20 21  0  0  0  0  0  0  0  0999 V2000
    6.4410   -2.9250   21.0670 C   0  0  0  0  0  0  0  0  0  0  0  0
    6.0120   -4.2660   20.8360 C   0  0  0  0  0  0  0  0  0  0  0  0
    5.3480   -4.5640   19.8400 O   0  0  0  0  0  0  0  0  0  0  0  0
    6.4170   -5.1600   21.8100 N   0  0  0  0  0  0  0  0  0  0  0  0
    5.5610   -6.1490   22.1730 C   0  0  0  0  0  0  0  0  0  0  0  0
    7.1470   -4.6420   22.9780 C   0  0  0  0  0  0  0  0  0  0  0  0
    4.7760   -5.8330   23.2760 C   0  0  0  0  0  0  0  0  0  0  0  0
    6.2390   -4.1950   23.9450 C   0  0  0  0  0  0  0  0  0  0  0  0
    5.4380   -5.2310   24.2940 N   0  0  0  0  0  0  0  0  0  0  0  0
    4.6470   -5.1000   25.8030 S   0  0  0  0  0  0  0  0  0  0  0  0
    3.8310   -6.2800   25.9640 O   0  0  0  0  0  0  0  0  0  0  0  0
    5.6600   -4.7270   26.7650 O   0  0  0  0  0  0  0  0  0  0  0  0
    3.5260   -3.8220   25.7590 C   0  0  0  0  0  0  0  0  0  0  0  0
    2.0450   -3.9550   25.4220 C   0  0  0  0  0  0  0  0  0  0  0  0
    4.0830   -2.5520   26.0800 C   0  0  0  0  0  0  0  0  0  0  0  0
    1.4440   -5.1110   25.1110 F   0  0  0  0  0  0  0  0  0  0  0  0
    1.2570   -2.6660   25.4650 C   0  0  0  0  0  0  0  0  0  0  0  0
    3.2980   -1.4030   26.0990 C   0  0  0  0  0  0  0  0  0  0  0  0
    5.3790   -2.4070   26.3810 F   0  0  0  0  0  0  0  0  0  0  0  0
    1.9630   -1.4180   25.8160 C   0  0  0  0  0  0  0  0  0  0  0  0
  1  2  1  0
  2  3  2  0
  2  4  1  0
  4  5  1  0
  4  6  1  0
  5  7  1  0
  6  8  1  0
  7  9  1  0
  8  9  1  0
 10  9  1  0
 10 11  2  0
 10 12  2  0
 10 13  1  0
 13 14  2  0
 13 15  1  0
 14 16  1  0
 14 17  1  0
 15 18  2  0
 15 19  1  0
 17 20  2  0
 18 20  1  0
M  END
>  <minimized2hits_rmsd>  (29) 
0.483864

>  <reference2hits_rmsd>  (29) 
0.472424

>  <reference2minimized_rmsd>  (29) 
0.850751

>  <smiles>  (29) 
CC(=O)N1CCN(S(=O)(=O)c2c(F)cccc2F)CC1

>  <error>  (29) 


>  <mode>  (29) 
expansion

>  <∆∆G>  (29) 
-4.653243

>  <∆G_bound>  (29) 
-3.368741

>  <∆G_unbound>  (29) 
1.284502

>  <comRMSD>  (29) 
0.483864

>  <N_constrained_atoms>  (29) 
17

>  <N_unconstrained_atoms>  (29) 
3

>  <runtime>  (29) 
36.815344

>  <regarded>  (29) 
['x0689']

>  <disregarded>  (29) 
[]

>  <rdock>  (29) 
5.629991

>  <n_inspirations>  (29) 
1

>  <crystal_code>  (29) 
x0755

>  <fraction_overlapping>  (29) 
0.9

>  <rdock_free>  (29) 
6.924841

>  <rdock_free_top10>  (29) 
6.091004

>  <rdock_pharm>  (29) 
2.044135

>  <rdock_pharm_top10>  (29) 
1.816383

>  <old_RMSD>  (29) 
0.515072

>  <filtered_reference2minimized_rmsd>  (29) 
0.850751

>  <based_on_x0434>  (29) 
False

>  <overlap_%>  (29) 
90.0

$$$$
MAK-UNK-6435e6c2-7
     RDKit          3D

 15 15  0  0  0  0  0  0  0  0999 V2000
   -1.1920   -4.4040   23.7140 C   0  0  0  0  0  0  0  0  0  0  0  0
   -0.1850   -4.3770   24.7170 O   0  0  0  0  0  0  0  0  0  0  0  0
    0.0050   -3.1630   25.2970 C   0  0  0  0  0  0  0  0  0  0  0  0
   -0.8790   -2.3760   25.5930 O   0  0  0  0  0  0  0  0  0  0  0  0
    1.3520   -2.9200   25.5120 C   0  0  0  0  0  0  0  0  0  0  0  0
    1.7860   -1.6260   25.8530 C   0  0  0  0  0  0  0  0  0  0  0  0
    2.2420   -3.9980   25.3740 C   0  0  0  0  0  0  0  0  0  0  0  0
    3.1240   -1.3650   26.0690 C   0  0  0  0  0  0  0  0  0  0  0  0
    3.6110   -3.8250   25.5780 C   0  0  0  0  0  0  0  0  0  0  0  0
    4.1300   -2.4640   25.9420 C   0  0  0  0  0  0  0  0  0  0  0  0
    4.5080   -4.9360   25.4460 N   0  0  0  0  0  0  0  0  0  0  0  0
    5.0190   -5.3930   23.8870 S   0  0  0  0  0  0  0  0  0  0  0  0
    6.5940   -4.5650   23.7860 C   0  0  0  0  0  0  0  0  0  0  0  0
    4.1310   -4.7560   22.9480 O   0  0  0  0  0  0  0  0  0  0  0  0
    5.2330   -6.8170   23.8270 O   0  0  0  0  0  0  0  0  0  0  0  0
  1  2  1  0
  2  3  1  0
  3  4  2  0
  3  5  1  0
  5  6  2  0
  5  7  1  0
  6  8  1  0
  7  9  2  0
  8 10  2  0
  9 10  1  0
  9 11  1  0
 12 11  1  0
 12 13  1  0
 12 14  2  0
 12 15  2  0
M  END
>  <minimized2hits_rmsd>  (30) 
0.511687

>  <reference2hits_rmsd>  (30) 
37.571988

>  <reference2minimized_rmsd>  (30) 
38.978239

>  <smiles>  (30) 
COC(=O)c1cccc(NS(C)(=O)=O)c1

>  <error>  (30) 


>  <mode>  (30) 
expansion

>  <∆∆G>  (30) 
-2.879073

>  <∆G_bound>  (30) 
-2.610899

>  <∆G_unbound>  (30) 
0.268174

>  <comRMSD>  (30) 
0.511687

>  <N_constrained_atoms>  (30) 
11

>  <N_unconstrained_atoms>  (30) 
6

>  <runtime>  (30) 
29.25369

>  <regarded>  (30) 
['x0689']

>  <disregarded>  (30) 
[]

>  <rdock>  (30) 
36.587188

>  <n_inspirations>  (30) 
1

>  <crystal_code>  (30) 
x0478

>  <fraction_overlapping>  (30) 
0.0

>  <rdock_free>  (30) 
33.862723

>  <rdock_free_top10>  (30) 
32.920891

>  <rdock_pharm>  (30) 
38.160977

>  <rdock_pharm_top10>  (30) 
37.788485

>  <old_RMSD>  (30) 
38.955693

>  <filtered_reference2minimized_rmsd>  (30) 
nan

>  <based_on_x0434>  (30) 
False

>  <overlap_%>  (30) 
0.0

$$$$
MAK-UNK-6435e6c2-8
     RDKit          3D

 11 11  0  0  0  0  0  0  0  0999 V2000
    4.0280   -6.6410   26.3810 C   0  0  0  0  0  0  0  0  0  0  0  0
    3.7920   -5.5670   25.4750 C   0  0  0  0  0  0  0  0  0  0  0  0
    3.3090   -4.4820   25.8110 O   0  0  0  0  0  0  0  0  0  0  0  0
    4.1600   -5.8640   24.1870 N   0  0  0  0  0  0  0  0  0  0  0  0
    5.2770   -5.3350   23.6680 C   0  0  0  0  0  0  0  0  0  0  0  0
    5.7960   -5.7190   22.4220 C   0  0  0  0  0  0  0  0  0  0  0  0
    5.9510   -4.3520   24.4180 C   0  0  0  0  0  0  0  0  0  0  0  0
    6.9220   -5.1830   21.8840 N   0  0  0  0  0  0  0  0  0  0  0  0
    7.1670   -3.7650   23.8400 C   0  0  0  0  0  0  0  0  0  0  0  0
    5.5690   -3.8170   25.7680 C   0  0  0  0  0  0  0  0  0  0  0  0
    7.5420   -4.2380   22.6170 C   0  0  0  0  0  0  0  0  0  0  0  0
  1  2  1  0
  2  3  2  0
  2  4  1  0
  4  5  1  0
  5  6  2  0
  5  7  1  0
  6  8  1  0
  7  9  2  0
  7 10  1  0
  8 11  2  0
  9 11  1  0
M  END
>  <minimized2hits_rmsd>  (31) 
0.899358

>  <reference2hits_rmsd>  (31) 
7.547805

>  <reference2minimized_rmsd>  (31) 
7.478539

>  <smiles>  (31) 
CC(=O)Nc1cnccc1C

>  <error>  (31) 


>  <mode>  (31) 
expansion

>  <∆∆G>  (31) 
-3.783306

>  <∆G_bound>  (31) 
-3.730298

>  <∆G_unbound>  (31) 
0.053008

>  <comRMSD>  (31) 
0.899358

>  <N_constrained_atoms>  (31) 
11

>  <N_unconstrained_atoms>  (31) 
2

>  <runtime>  (31) 
26.514534

>  <regarded>  (31) 
['x0689']

>  <disregarded>  (31) 
[]

>  <rdock>  (31) 
6.708011

>  <n_inspirations>  (31) 
1

>  <crystal_code>  (31) 
x0107

>  <fraction_overlapping>  (31) 
0.0

>  <rdock_free>  (31) 
7.110729

>  <rdock_free_top10>  (31) 
6.484599

>  <rdock_pharm>  (31) 
nan

>  <rdock_pharm_top10>  (31) 
nan

>  <old_RMSD>  (31) 
6.551765

>  <filtered_reference2minimized_rmsd>  (31) 
nan

>  <based_on_x0434>  (31) 
False

>  <overlap_%>  (31) 
0.0

$$$$
MAK-UNK-6435e6c2-9
     RDKit          3D

 15 16  0  0  0  0  0  0  0  0999 V2000
    5.6270   -6.1050   20.8230 C   0  0  0  0  0  0  0  0  0  0  0  0
    5.8860   -5.7470   22.1480 C   0  0  2  0  0  0  0  0  0  0  0  0
    4.8490   -5.5260   23.0460 C   0  0  2  0  0  0  0  0  0  0  0  0
    6.6930   -4.6540   22.0310 N   0  0  0  0  0  0  0  0  0  0  0  0
    3.9250   -4.5420   22.5460 O   0  0  0  0  0  0  0  0  0  0  0  0
    5.2700   -5.1000   24.2920 C   0  0  0  0  0  0  0  0  0  0  0  0
    7.1610   -4.1410   23.2420 C   0  0  0  0  0  0  0  0  0  0  0  0
    6.1010   -3.7240   21.1450 C   0  0  0  0  0  0  0  0  0  0  0  0
    6.1860   -4.0770   24.2350 C   0  0  0  0  0  0  0  0  0  0  0  0
    6.5860   -2.3270   20.9000 C   0  0  0  0  0  0  0  0  0  0  0  0
    7.7480   -1.8180   21.4910 C   0  0  0  0  0  0  0  0  0  0  0  0
    5.8380   -1.5070   20.0500 C   0  0  0  0  0  0  0  0  0  0  0  0
    8.1550   -0.5080   21.2410 C   0  0  0  0  0  0  0  0  0  0  0  0
    6.2470   -0.2000   19.8000 C   0  0  0  0  0  0  0  0  0  0  0  0
    7.4020    0.2960   20.3990 C   0  0  0  0  0  0  0  0  0  0  0  0
  2  1  1  6
  2  3  1  0
  2  4  1  0
  3  5  1  6
  3  6  1  0
  4  7  1  0
  4  8  1  0
  6  9  1  0
  7  9  1  0
  8 10  1  0
 10 11  2  0
 10 12  1  0
 11 13  1  0
 12 14  2  0
 13 15  2  0
 14 15  1  0
M  END
>  <minimized2hits_rmsd>  (32) 
1.229671

>  <reference2hits_rmsd>  (32) 
29.545678

>  <reference2minimized_rmsd>  (32) 
29.047865

>  <smiles>  (32) 
CC1C(O)CCCN1Cc1ccccc1

>  <error>  (32) 


>  <mode>  (32) 
expansion

>  <∆∆G>  (32) 
-4.401624

>  <∆G_bound>  (32) 
-4.321384

>  <∆G_unbound>  (32) 
0.08024

>  <comRMSD>  (32) 
1.229671

>  <N_constrained_atoms>  (32) 
11

>  <N_unconstrained_atoms>  (32) 
7

>  <runtime>  (32) 
61.420254

>  <regarded>  (32) 
['x0689']

>  <disregarded>  (32) 
[]

>  <rdock>  (32) 
30.706589

>  <n_inspirations>  (32) 
1

>  <crystal_code>  (32) 
x0464

>  <fraction_overlapping>  (32) 
0.0

>  <rdock_free>  (32) 
25.625966

>  <rdock_free_top10>  (32) 
25.102097

>  <rdock_pharm>  (32) 
nan

>  <rdock_pharm_top10>  (32) 
nan

>  <old_RMSD>  (32) 
29.244738

>  <filtered_reference2minimized_rmsd>  (32) 
nan

>  <based_on_x0434>  (32) 
False

>  <overlap_%>  (32) 
0.0

$$$$
PET-SGC-a8a902d9-1
     RDKit          3D

 24 26  0  0  0  0  0  0  0  0999 V2000
    5.0470    1.0450   21.8130 C   0  0  0  0  0  0  0  0  0  0  0  0
    5.4970    0.8260   20.4800 C   0  0  0  0  0  0  0  0  0  0  0  0
    4.8680    1.4340   19.4020 C   0  0  0  0  0  0  0  0  0  0  0  0
    6.5780   -0.0120   20.2720 C   0  0  0  0  0  0  0  0  0  0  0  0
    5.3520    1.1800   18.1240 C   0  0  0  0  0  0  0  0  0  0  0  0
    6.9910   -0.2100   18.9750 C   0  0  0  0  0  0  0  0  0  0  0  0
    7.1730   -0.5980   21.3070 N   0  0  0  0  0  0  0  0  0  0  0  0
    6.3930    0.3770   17.8920 N   0  0  0  0  0  0  0  0  0  0  0  0
    8.5130   -0.6170   21.6700 C   0  0  0  0  0  0  0  0  0  0  0  0
    9.2870    0.3310   21.5140 O   0  0  0  0  0  0  0  0  0  0  0  0
    8.9880   -1.8860   22.2940 C   0  0  0  0  0  0  0  0  0  0  0  0
    9.6000   -1.7560   23.5310 C   0  0  2  0  0  0  0  0  0  0  0  0
   10.8930   -1.3570   23.2690 C   0  0  0  0  0  0  0  0  0  0  0  0
    9.4970   -2.9100   24.4410 N   0  0  0  0  0  0  0  0  0  0  0  0
   11.4980   -0.2710   23.8620 C   0  0  0  0  0  0  0  0  0  0  0  0
   11.7640   -1.9500   22.3740 C   0  0  0  0  0  0  0  0  0  0  0  0
   10.6560   -3.3380   25.2160 C   0  0  0  0  0  0  0  0  0  0  0  0
    8.2110   -3.0100   25.1390 C   0  0  0  0  0  0  0  0  0  0  0  0
   12.7810   -0.0260   23.4390 C   0  0  0  0  0  0  0  0  0  0  0  0
   13.2740   -1.1700   22.2810 S   0  0  0  0  0  0  0  0  0  0  0  0
   10.4390   -4.5320   25.9150 C   0  0  0  0  0  0  0  0  0  0  0  0
    8.0840   -4.2730   25.7210 C   0  0  0  0  0  0  0  0  0  0  0  0
    9.1720   -4.8140   26.4040 C   0  0  0  0  0  0  0  0  0  0  0  0
    9.1100   -4.4120   27.7710 O   0  0  0  0  0  0  0  0  0  0  0  0
  1  2  1  0
  2  3  2  0
  2  4  1  0
  3  5  1  0
  4  6  2  0
  4  7  1  0
  5  8  2  0
  6  8  1  0
  7  9  1  0
  9 10  2  0
  9 11  1  0
 12 11  1  6
 12 13  1  0
 12 14  1  0
 13 15  1  0
 13 16  2  0
 14 17  1  0
 14 18  1  0
 15 19  2  0
 16 20  1  0
 19 20  1  0
 17 21  1  0
 18 22  1  0
 21 23  1  0
 22 23  1  0
 23 24  1  0
M  END
>  <minimized2hits_rmsd>  (33) 
0.532953

>  <reference2hits_rmsd>  (33) 
2.958008

>  <reference2minimized_rmsd>  (33) 
2.949286

>  <smiles>  (33) 
Cc1ccncc1NC(=O)CC(c1ccsc1)N1CCC(O)CC1

>  <error>  (33) 


>  <mode>  (33) 
expansion

>  <∆∆G>  (33) 
-8.864598

>  <∆G_bound>  (33) 
-7.448897

>  <∆G_unbound>  (33) 
1.415702

>  <comRMSD>  (33) 
0.532953

>  <N_constrained_atoms>  (33) 
23

>  <N_unconstrained_atoms>  (33) 
1

>  <runtime>  (33) 
69.918098

>  <regarded>  (33) 
['x0107', 'x0387']

>  <disregarded>  (33) 
[]

>  <rdock>  (33) 
5.873143

>  <n_inspirations>  (33) 
2

>  <crystal_code>  (33) 
x11225

>  <fraction_overlapping>  (33) 
0.708333

>  <rdock_free>  (33) 
4.838026

>  <rdock_free_top10>  (33) 
2.354466

>  <rdock_pharm>  (33) 
nan

>  <rdock_pharm_top10>  (33) 
nan

>  <old_RMSD>  (33) 
2.932577

>  <filtered_reference2minimized_rmsd>  (33) 
nan

>  <based_on_x0434>  (33) 
False

>  <overlap_%>  (33) 
70.833333

$$$$
ALV-UNI-7ff1a6f9-47
     RDKit          3D

 22 24  0  0  0  0  0  0  0  0999 V2000
   13.2560   -2.1990   21.0430 C   0  0  0  0  0  0  0  0  0  0  0  0
   13.5060   -1.6580   22.3220 O   0  0  0  0  0  0  0  0  0  0  0  0
   12.4570   -0.9420   22.7010 C   0  0  0  0  0  0  0  0  0  0  0  0
   12.7740    0.2200   23.3510 C   0  0  0  0  0  0  0  0  0  0  0  0
   11.1510   -1.2870   22.4800 C   0  0  0  0  0  0  0  0  0  0  0  0
   11.7320    1.0290   23.7850 C   0  0  0  0  0  0  0  0  0  0  0  0
   10.1740   -0.4340   22.9360 C   0  0  0  0  0  0  0  0  0  0  0  0
   10.4420    0.7350   23.5990 N   0  0  0  0  0  0  0  0  0  0  0  0
    8.9180   -0.7890   22.6910 N   0  0  0  0  0  0  0  0  0  0  0  0
    8.2810   -0.3080   21.5610 C   0  0  0  0  0  0  0  0  0  0  0  0
    8.5130    0.8080   21.1010 O   0  0  0  0  0  0  0  0  0  0  0  0
    7.2630   -1.1170   20.8110 C   0  0  0  0  0  0  0  0  0  0  0  0
    6.4740   -0.1380   20.0380 C   0  0  0  0  0  0  0  0  0  0  0  0
    6.8630    0.1840   18.7550 C   0  0  0  0  0  0  0  0  0  0  0  0
    5.3650    0.4590   20.6060 C   0  0  0  0  0  0  0  0  0  0  0  0
    6.1530    1.1200   18.0290 C   0  0  0  0  0  0  0  0  0  0  0  0
    4.6480    1.3990   19.9020 C   0  0  0  0  0  0  0  0  0  0  0  0
    5.0600    1.7320   18.6080 C   0  0  0  0  0  0  0  0  0  0  0  0
    3.5470    1.9940   20.4940 C   0  0  0  0  0  0  0  0  0  0  0  0
    4.3550    2.6910   17.9220 C   0  0  0  0  0  0  0  0  0  0  0  0
    2.7560    3.0430   19.7480 C   0  0  0  0  0  0  0  0  0  0  0  0
    3.2320    3.3280   18.4780 C   0  0  0  0  0  0  0  0  0  0  0  0
  1  2  1  0
  2  3  1  0
  3  4  2  0
  3  5  1  0
  4  6  1  0
  5  7  2  0
  6  8  2  0
  7  8  1  0
  7  9  1  0
  9 10  1  0
 10 11  2  0
 10 12  1  0
 12 13  1  0
 13 14  2  0
 13 15  1  0
 14 16  1  0
 15 17  2  0
 16 18  2  0
 17 18  1  0
 17 19  1  0
 18 20  1  0
 19 21  2  0
 20 22  2  0
 21 22  1  0
M  END
>  <minimized2hits_rmsd>  (34) 
0.601776

>  <reference2hits_rmsd>  (34) 
6.924826

>  <reference2minimized_rmsd>  (34) 
7.755464

>  <smiles>  (34) 
COc1ccnc(NC(=O)Cc2ccc3ccccc3c2)c1

>  <error>  (34) 


>  <mode>  (34) 
expansion

>  <∆∆G>  (34) 
-8.449871

>  <∆G_bound>  (34) 
-8.06212

>  <∆G_unbound>  (34) 
0.387751

>  <comRMSD>  (34) 
0.601776

>  <N_constrained_atoms>  (34) 
16

>  <N_unconstrained_atoms>  (34) 
6

>  <runtime>  (34) 
107.718441

>  <regarded>  (34) 
['x0434']

>  <disregarded>  (34) 
[]

>  <rdock>  (34) 
4.316867

>  <n_inspirations>  (34) 
1

>  <crystal_code>  (34) 
x2581

>  <fraction_overlapping>  (34) 
0.181818

>  <rdock_free>  (34) 
8.43215

>  <rdock_free_top10>  (34) 
4.342233

>  <rdock_pharm>  (34) 
8.130125

>  <rdock_pharm_top10>  (34) 
6.430576

>  <old_RMSD>  (34) 
7.91055

>  <filtered_reference2minimized_rmsd>  (34) 
nan

>  <based_on_x0434>  (34) 
True

>  <overlap_%>  (34) 
18.181818

$$$$
GAB-REV-70cc3ca5-4
     RDKit          3D

 22 24  0  0  0  0  0  0  0  0999 V2000
    5.4050    0.8960   21.9140 C   0  0  0  0  0  0  0  0  0  0  0  0
    5.6810    0.6320   20.5380 C   0  0  0  0  0  0  0  0  0  0  0  0
    4.7630    0.9910   19.5670 C   0  0  0  0  0  0  0  0  0  0  0  0
    6.8770    0.0160   20.1560 C   0  0  0  0  0  0  0  0  0  0  0  0
    5.0580    0.7250   18.2380 C   0  0  0  0  0  0  0  0  0  0  0  0
    7.0650   -0.2140   18.8130 C   0  0  0  0  0  0  0  0  0  0  0  0
    7.8130   -0.3310   21.0390 N   0  0  0  0  0  0  0  0  0  0  0  0
    6.1790    0.1310   17.8410 N   0  0  0  0  0  0  0  0  0  0  0  0
    8.5950    0.6470   21.6750 C   0  0  0  0  0  0  0  0  0  0  0  0
    9.0560    1.6270   21.0950 O   0  0  0  0  0  0  0  0  0  0  0  0
    8.8690    0.5850   23.1270 C   0  0  0  0  0  0  0  0  0  0  0  0
    9.1560   -0.7910   23.4630 N   0  0  0  0  0  0  0  0  0  0  0  0
   10.4090   -0.9610   23.8240 C   0  0  0  0  0  0  0  0  0  0  0  0
   10.8750   -0.4420   25.0030 C   0  0  0  0  0  0  0  0  0  0  0  0
   11.2810   -1.6720   22.9790 C   0  0  0  0  0  0  0  0  0  0  0  0
   12.1880   -0.6490   25.3240 C   0  0  0  0  0  0  0  0  0  0  0  0
   12.5980   -1.8470   23.4250 C   0  0  0  0  0  0  0  0  0  0  0  0
   10.8810   -2.1840   21.7610 C   0  0  0  0  0  0  0  0  0  0  0  0
   13.0850   -1.3860   24.5380 N   0  0  0  0  0  0  0  0  0  0  0  0
   13.4930   -2.5270   22.7080 C   0  0  0  0  0  0  0  0  0  0  0  0
   11.8090   -2.8680   21.0020 C   0  0  0  0  0  0  0  0  0  0  0  0
   13.1770   -3.0560   21.4910 C   0  0  0  0  0  0  0  0  0  0  0  0
  1  2  1  0
  2  3  2  0
  2  4  1  0
  3  5  1  0
  4  6  2  0
  4  7  1  0
  5  8  2  0
  6  8  1  0
  7  9  1  0
  9 10  2  0
  9 11  1  0
 11 12  1  0
 12 13  1  0
 13 14  2  0
 13 15  1  0
 14 16  1  0
 15 17  2  0
 15 18  1  0
 16 19  2  0
 17 19  1  0
 17 20  1  0
 18 21  2  0
 20 22  2  0
 21 22  1  0
M  END
>  <minimized2hits_rmsd>  (35) 
0.733163

>  <reference2hits_rmsd>  (35) 
0.364332

>  <reference2minimized_rmsd>  (35) 
3.837864

>  <smiles>  (35) 
Cc1ccncc1NC(=O)CNc1ccnc2ccccc12

>  <error>  (35) 


>  <mode>  (35) 
expansion

>  <∆∆G>  (35) 
-5.223984

>  <∆G_bound>  (35) 
-4.640329

>  <∆G_unbound>  (35) 
0.583655

>  <comRMSD>  (35) 
0.733163

>  <N_constrained_atoms>  (35) 
11

>  <N_unconstrained_atoms>  (35) 
11

>  <runtime>  (35) 
2776.27016

>  <regarded>  (35) 
['x0107']

>  <disregarded>  (35) 
[]

>  <rdock>  (35) 
6.206683

>  <n_inspirations>  (35) 
1

>  <crystal_code>  (35) 
x10019

>  <fraction_overlapping>  (35) 
0.5

>  <rdock_free>  (35) 
7.768202

>  <rdock_free_top10>  (35) 
4.213928

>  <rdock_pharm>  (35) 
4.010781

>  <rdock_pharm_top10>  (35) 
3.507551

>  <old_RMSD>  (35) 
4.242238

>  <filtered_reference2minimized_rmsd>  (35) 
nan

>  <based_on_x0434>  (35) 
False

>  <overlap_%>  (35) 
50.0

$$$$
GAB-REV-70cc3ca5-8
     RDKit          3D

 26 28  0  0  0  0  0  0  0  0999 V2000
    4.3760    1.9570   21.4370 C   0  0  0  0  0  0  0  0  0  0  0  0
    4.9610    1.3270   20.3060 C   0  0  0  0  0  0  0  0  0  0  0  0
    4.2350    1.1360   19.1540 C   0  0  0  0  0  0  0  0  0  0  0  0
    6.2750    0.8930   20.3510 C   0  0  0  0  0  0  0  0  0  0  0  0
    4.8420    0.5130   18.0730 C   0  0  0  0  0  0  0  0  0  0  0  0
    6.7840    0.2750   19.2140 C   0  0  0  0  0  0  0  0  0  0  0  0
    7.0150    1.0680   21.4610 N   0  0  0  0  0  0  0  0  0  0  0  0
    6.0940    0.0740   18.0600 N   0  0  0  0  0  0  0  0  0  0  0  0
    8.3910    1.3100   21.5330 C   0  0  0  0  0  0  0  0  0  0  0  0
    8.8770    2.3760   21.1990 O   0  0  0  0  0  0  0  0  0  0  0  0
    9.3080    0.2530   22.0370 C   0  0  0  0  0  0  0  0  0  0  0  0
    8.9870   -0.9780   21.2780 N   0  0  0  0  0  0  0  0  0  0  0  0
    7.6900   -1.2410   21.0610 C   0  0  0  0  0  0  0  0  0  0  0  0
    9.7720   -2.3500   21.8590 S   0  0  0  0  0  0  0  0  0  0  0  0
   10.7850   -2.9110   21.0190 O   0  0  0  0  0  0  0  0  0  0  0  0
    8.7120   -3.1420   22.4520 O   0  0  0  0  0  0  0  0  0  0  0  0
   10.6610   -1.7250   23.1510 C   0  0  0  0  0  0  0  0  0  0  0  0
   12.0270   -1.7240   23.1100 C   0  0  0  0  0  0  0  0  0  0  0  0
    9.9290   -1.2480   24.1740 C   0  0  0  0  0  0  0  0  0  0  0  0
   12.7630   -1.2250   24.1320 C   0  0  0  0  0  0  0  0  0  0  0  0
   10.6560   -0.7380   25.2280 C   0  0  0  0  0  0  0  0  0  0  0  0
    8.5670   -1.2800   24.1510 N   0  0  0  0  0  0  0  0  0  0  0  0
   12.0780   -0.7200   25.2150 C   0  0  0  0  0  0  0  0  0  0  0  0
    9.8700   -0.2730   26.2580 C   0  0  0  0  0  0  0  0  0  0  0  0
    7.8560   -0.7970   25.1870 C   0  0  0  0  0  0  0  0  0  0  0  0
    8.4870   -0.2720   26.2910 C   0  0  0  0  0  0  0  0  0  0  0  0
  1  2  1  0
  2  3  2  0
  2  4  1  0
  3  5  1  0
  4  6  2  0
  4  7  1  0
  5  8  2  0
  6  8  1  0
  7  9  1  0
  9 10  2  0
  9 11  1  0
 11 12  1  0
 12 13  1  0
 14 12  1  0
 14 15  2  0
 14 16  2  0
 14 17  1  0
 17 18  2  0
 17 19  1  0
 18 20  1  0
 19 21  2  0
 19 22  1  0
 20 23  2  0
 21 23  1  0
 21 24  1  0
 22 25  2  0
 24 26  2  0
 25 26  1  0
M  END
>  <minimized2hits_rmsd>  (36) 
1.325239

>  <reference2hits_rmsd>  (36) 
0.280184

>  <reference2minimized_rmsd>  (36) 
2.890464

>  <smiles>  (36) 
Cc1ccncc1NC(=O)CN(C)S(=O)(=O)c1cccc2cccnc12

>  <error>  (36) 


>  <mode>  (36) 
expansion

>  <∆∆G>  (36) 
-1.72775

>  <∆G_bound>  (36) 
-1.603947

>  <∆G_unbound>  (36) 
0.123803

>  <comRMSD>  (36) 
1.325239

>  <N_constrained_atoms>  (36) 
11

>  <N_unconstrained_atoms>  (36) 
15

>  <runtime>  (36) 
204.251874

>  <regarded>  (36) 
['x0107']

>  <disregarded>  (36) 
[]

>  <rdock>  (36) 
5.894868

>  <n_inspirations>  (36) 
1

>  <crystal_code>  (36) 
x3080

>  <fraction_overlapping>  (36) 
0.423077

>  <rdock_free>  (36) 
7.608512

>  <rdock_free_top10>  (36) 
5.345654

>  <rdock_pharm>  (36) 
4.365484

>  <rdock_pharm_top10>  (36) 
4.365484

>  <old_RMSD>  (36) 
4.211101

>  <filtered_reference2minimized_rmsd>  (36) 
nan

>  <based_on_x0434>  (36) 
False

>  <overlap_%>  (36) 
42.307692

$$$$
GAB-REV-70cc3ca5-13
     RDKit          3D

 21 22  0  0  0  0  0  0  0  0999 V2000
    5.3760    0.8400   21.9960 C   0  0  0  0  0  0  0  0  0  0  0  0
    5.6580    0.6050   20.6190 C   0  0  0  0  0  0  0  0  0  0  0  0
    4.7610    1.0150   19.6380 C   0  0  0  0  0  0  0  0  0  0  0  0
    6.8380   -0.0410   20.2360 C   0  0  0  0  0  0  0  0  0  0  0  0
    5.0650    0.7670   18.3070 C   0  0  0  0  0  0  0  0  0  0  0  0
    7.0360   -0.2440   18.8980 C   0  0  0  0  0  0  0  0  0  0  0  0
    7.7630   -0.4520   21.1020 N   0  0  0  0  0  0  0  0  0  0  0  0
    6.1740    0.1460   17.9160 N   0  0  0  0  0  0  0  0  0  0  0  0
    8.8010    0.3890   21.5420 C   0  0  0  0  0  0  0  0  0  0  0  0
    8.9680    1.5270   21.0980 O   0  0  0  0  0  0  0  0  0  0  0  0
    9.7610   -0.0320   22.5750 C   0  0  0  0  0  0  0  0  0  0  0  0
    9.7000    1.0650   23.5670 N   0  0  0  0  0  0  0  0  0  0  0  0
    9.4400    0.6800   24.8100 C   0  0  0  0  0  0  0  0  0  0  0  0
    8.6840    1.3080   25.5360 O   0  0  0  0  0  0  0  0  0  0  0  0
   10.0490   -0.4810   25.2210 C   0  0  0  0  0  0  0  0  0  0  0  0
   11.1850   -0.7730   24.4790 C   0  0  0  0  0  0  0  0  0  0  0  0
   11.9630    0.3030   23.9390 C   0  0  0  0  0  0  0  0  0  0  0  0
   11.5610   -2.1460   24.2520 C   0  0  0  0  0  0  0  0  0  0  0  0
   13.0690   -0.0380   23.1910 C   0  0  0  0  0  0  0  0  0  0  0  0
   12.6450   -2.5200   23.5310 N   0  0  0  0  0  0  0  0  0  0  0  0
   13.1480   -1.3830   23.1640 C   0  0  0  0  0  0  0  0  0  0  0  0
  1  2  1  0
  2  3  2  0
  2  4  1  0
  3  5  1  0
  4  6  2  0
  4  7  1  0
  5  8  2  0
  6  8  1  0
  7  9  1  0
  9 10  2  0
  9 11  1  0
 11 12  1  0
 12 13  1  0
 13 14  2  0
 13 15  1  0
 15 16  1  0
 16 17  2  0
 16 18  1  0
 17 19  1  0
 18 20  2  0
 19 21  2  0
 20 21  1  0
M  END
>  <minimized2hits_rmsd>  (37) 
0.489064

>  <reference2hits_rmsd>  (37) 
0.67734

>  <reference2minimized_rmsd>  (37) 
2.980542

>  <smiles>  (37) 
Cc1ccncc1NC(=O)CNC(=O)Cc1cccnc1

>  <error>  (37) 


>  <mode>  (37) 
expansion

>  <∆∆G>  (37) 
-5.976607

>  <∆G_bound>  (37) 
-5.158949

>  <∆G_unbound>  (37) 
0.817659

>  <comRMSD>  (37) 
0.489064

>  <N_constrained_atoms>  (37) 
11

>  <N_unconstrained_atoms>  (37) 
10

>  <runtime>  (37) 
90.576241

>  <regarded>  (37) 
['x0107']

>  <disregarded>  (37) 
[]

>  <rdock>  (37) 
5.816508

>  <n_inspirations>  (37) 
1

>  <crystal_code>  (37) 
x3108

>  <fraction_overlapping>  (37) 
0.52381

>  <rdock_free>  (37) 
3.870378

>  <rdock_free_top10>  (37) 
3.322566

>  <rdock_pharm>  (37) 
3.799346

>  <rdock_pharm_top10>  (37) 
3.180556

>  <old_RMSD>  (37) 
2.524126

>  <filtered_reference2minimized_rmsd>  (37) 
nan

>  <based_on_x0434>  (37) 
False

>  <overlap_%>  (37) 
52.380952

$$$$
GAB-REV-70cc3ca5-18
     RDKit          3D

 20 22  0  0  0  0  0  0  0  0999 V2000
    5.3680    0.7380   22.0290 C   0  0  0  0  0  0  0  0  0  0  0  0
    5.6640    0.5280   20.6520 C   0  0  0  0  0  0  0  0  0  0  0  0
    4.8110    1.0150   19.6690 C   0  0  0  0  0  0  0  0  0  0  0  0
    6.8180   -0.1680   20.2820 C   0  0  0  0  0  0  0  0  0  0  0  0
    5.1260    0.7970   18.3350 C   0  0  0  0  0  0  0  0  0  0  0  0
    7.0380   -0.3380   18.9390 C   0  0  0  0  0  0  0  0  0  0  0  0
    7.7010   -0.6510   21.1710 N   0  0  0  0  0  0  0  0  0  0  0  0
    6.2150    0.1310   17.9500 N   0  0  0  0  0  0  0  0  0  0  0  0
    8.7280    0.1880   21.6140 C   0  0  0  0  0  0  0  0  0  0  0  0
    8.8800    1.3130   21.1150 O   0  0  0  0  0  0  0  0  0  0  0  0
    9.7140   -0.1510   22.6810 C   0  0  0  0  0  0  0  0  0  0  0  0
   10.5790    0.9240   22.7700 C   0  0  0  0  0  0  0  0  0  0  0  0
   11.9610    0.7210   22.8230 C   0  0  0  0  0  0  0  0  0  0  0  0
   10.0360    2.2300   22.7830 C   0  0  0  0  0  0  0  0  0  0  0  0
   12.8410    1.7980   22.8750 C   0  0  0  0  0  0  0  0  0  0  0  0
   11.0460    3.3340   22.8390 C   0  0  0  0  0  0  0  0  0  0  0  0
   12.3800    3.1200   22.8770 C   0  0  0  0  0  0  0  0  0  0  0  0
   10.7650    4.4750   22.8500 N   0  0  0  0  0  0  0  0  0  0  0  0
   13.0560    4.3060   22.9100 N   0  0  0  0  0  0  0  0  0  0  0  0
   11.9360    5.1980   22.8950 C   0  0  0  0  0  0  0  0  0  0  0  0
  1  2  1  0
  2  3  2  0
  2  4  1  0
  3  5  1  0
  4  6  2  0
  4  7  1  0
  5  8  2  0
  6  8  1  0
  7  9  1  0
  9 10  2  0
  9 11  1  0
 11 12  1  0
 12 13  2  0
 12 14  1  0
 13 15  1  0
 14 16  2  0
 15 17  2  0
 16 17  1  0
 16 18  1  0
 17 19  1  0
 18 20  1  0
 19 20  2  0
M  END
>  <minimized2hits_rmsd>  (38) 
0.459143

>  <reference2hits_rmsd>  (38) 
0.394254

>  <reference2minimized_rmsd>  (38) 
5.275374

>  <smiles>  (38) 
Cc1ccncc1NC(=O)Cc1ccc2nc[nH]c2c1

>  <error>  (38) 


>  <mode>  (38) 
expansion

>  <∆∆G>  (38) 
-4.62542

>  <∆G_bound>  (38) 
-4.867169

>  <∆G_unbound>  (38) 
-0.241749

>  <comRMSD>  (38) 
0.459143

>  <N_constrained_atoms>  (38) 
11

>  <N_unconstrained_atoms>  (38) 
9

>  <runtime>  (38) 
85.856139

>  <regarded>  (38) 
['x0107']

>  <disregarded>  (38) 
[]

>  <rdock>  (38) 
7.242206

>  <n_inspirations>  (38) 
1

>  <crystal_code>  (38) 
x3366

>  <fraction_overlapping>  (38) 
0.55

>  <rdock_free>  (38) 
5.913069

>  <rdock_free_top10>  (38) 
2.988088

>  <rdock_pharm>  (38) 
3.716741

>  <rdock_pharm_top10>  (38) 
2.925588

>  <old_RMSD>  (38) 
5.143004

>  <filtered_reference2minimized_rmsd>  (38) 
nan

>  <based_on_x0434>  (38) 
False

>  <overlap_%>  (38) 
55.0

$$$$
ALE-HEI-f28a35b5-9
     RDKit          3D

 16 17  0  0  0  0  0  0  0  0999 V2000
    9.0120    0.7500   21.3740 O   0  0  0  0  0  0  0  0  0  0  0  0
    8.4990   -0.3330   21.6090 C   0  0  0  0  0  0  0  0  0  0  0  0
    9.1960   -1.3430   22.3560 C   0  0  0  0  0  0  0  0  0  0  0  0
    7.2220   -0.6970   21.1920 N   0  0  0  0  0  0  0  0  0  0  0  0
   10.4120   -1.0680   22.9810 C   0  0  0  0  0  0  0  0  0  0  0  0
    6.4560   -0.0220   20.2150 C   0  0  0  0  0  0  0  0  0  0  0  0
   11.5770   -1.5060   22.3210 C   0  0  0  0  0  0  0  0  0  0  0  0
   10.4550    0.4170   23.3880 C   0  0  0  0  0  0  0  0  0  0  0  0
    5.2780    0.6990   20.4550 C   0  0  0  0  0  0  0  0  0  0  0  0
    6.9210   -0.0820   18.9080 C   0  0  0  0  0  0  0  0  0  0  0  0
   12.7270   -0.9340   22.8660 C   0  0  0  0  0  0  0  0  0  0  0  0
   11.6210    0.7030   24.0550 C   0  0  0  0  0  0  0  0  0  0  0  0
    4.6490    1.3170   19.3850 C   0  0  0  0  0  0  0  0  0  0  0  0
    6.3440    0.5020   17.8400 N   0  0  0  0  0  0  0  0  0  0  0  0
   12.6670    0.5510   23.0060 C   0  0  0  0  0  0  0  0  0  0  0  0
    5.1830    1.2130   18.1240 C   0  0  0  0  0  0  0  0  0  0  0  0
  1  2  2  0
  2  3  1  0
  2  4  1  0
  3  5  1  0
  4  6  1  0
  5  7  1  0
  5  8  1  0
  6  9  2  0
  6 10  1  0
  7 11  1  0
  8 12  1  0
  9 13  1  0
 10 14  2  0
 11 15  1  0
 12 15  1  0
 13 16  2  0
 14 16  1  0
M  END
>  <minimized2hits_rmsd>  (39) 
0.481555

>  <reference2hits_rmsd>  (39) 
0.881703

>  <reference2minimized_rmsd>  (39) 
1.013717

>  <smiles>  (39) 
O=C(CC1CCCCC1)Nc1cccnc1

>  <error>  (39) 


>  <mode>  (39) 
expansion

>  <∆∆G>  (39) 
-5.260227

>  <∆G_bound>  (39) 
-4.801816

>  <∆G_unbound>  (39) 
0.45841

>  <comRMSD>  (39) 
0.481555

>  <N_constrained_atoms>  (39) 
16

>  <N_unconstrained_atoms>  (39) 
0

>  <runtime>  (39) 
81.209314

>  <regarded>  (39) 
['x0434']

>  <disregarded>  (39) 
[]

>  <rdock>  (39) 
1.479896

>  <n_inspirations>  (39) 
1

>  <crystal_code>  (39) 
x0678

>  <fraction_overlapping>  (39) 
0.9375

>  <rdock_free>  (39) 
6.722042

>  <rdock_free_top10>  (39) 
5.788319

>  <rdock_pharm>  (39) 
nan

>  <rdock_pharm_top10>  (39) 
nan

>  <old_RMSD>  (39) 
1.009449

>  <filtered_reference2minimized_rmsd>  (39) 
1.013717

>  <based_on_x0434>  (39) 
True

>  <overlap_%>  (39) 
93.75

$$$$
BAR-COM-4e090d3a-39
     RDKit          3D

 22 24  0  0  0  0  0  0  0  0999 V2000
    8.4850    1.3790   21.0650 O   0  0  0  0  0  0  0  0  0  0  0  0
    8.2070    0.3450   21.6890 C   0  0  0  0  0  0  0  0  0  0  0  0
    7.1300   -0.4740   21.2680 C   0  0  0  0  0  0  0  0  0  0  0  0
    8.9050   -0.1000   22.7890 N   0  0  0  0  0  0  0  0  0  0  0  0
    6.3910    0.0720   20.2560 C   0  0  0  0  0  0  0  0  0  0  0  0
   10.2210    0.3350   22.9140 C   0  0  0  0  0  0  0  0  0  0  0  0
    6.7960   -0.0910   18.9510 C   0  0  0  0  0  0  0  0  0  0  0  0
    5.2410    0.8060   20.4350 C   0  0  0  0  0  0  0  0  0  0  0  0
   10.4770    1.7900   22.9790 C   0  0  0  0  0  0  0  0  0  0  0  0
   11.2800   -0.5420   22.9580 C   0  0  0  0  0  0  0  0  0  0  0  0
    6.1410    0.4240   17.9070 N   0  0  0  0  0  0  0  0  0  0  0  0
    4.5400    1.3510   19.4180 N   0  0  0  0  0  0  0  0  0  0  0  0
   11.7800    2.2300   23.0600 C   0  0  0  0  0  0  0  0  0  0  0  0
   12.5740   -0.0470   23.0450 C   0  0  0  0  0  0  0  0  0  0  0  0
    5.0300    1.1370   18.1810 C   0  0  0  0  0  0  0  0  0  0  0  0
   12.8130    1.3110   23.0810 C   0  0  0  0  0  0  0  0  0  0  0  0
   13.6120   -1.0110   23.0870 O   0  0  0  0  0  0  0  0  0  0  0  0
   13.2330   -2.3270   22.7460 C   0  0  2  0  0  0  0  0  0  0  0  0
   12.7790   -2.4980   21.3720 C   0  0  0  0  0  0  0  0  0  0  0  0
   11.8700   -2.6050   23.2720 N   0  0  0  0  0  0  0  0  0  0  0  0
   11.7360   -2.6060   22.0290 C   0  0  0  0  0  0  0  0  0  0  0  0
   10.6200   -2.7060   21.5910 O   0  0  0  0  0  0  0  0  0  0  0  0
  1  2  2  0
  2  3  1  0
  2  4  1  0
  3  5  1  0
  4  6  1  0
  5  7  2  0
  5  8  1  0
  6  9  2  0
  6 10  1  0
  7 11  1  0
  8 12  2  0
  9 13  1  0
 10 14  2  0
 11 15  2  0
 12 15  1  0
 13 16  2  0
 14 16  1  0
 14 17  1  0
 18 17  1  6
 18 19  1  0
 18 20  1  0
 19 21  1  0
 20 21  1  0
 21 22  2  0
M  END
>  <minimized2hits_rmsd>  (40) 
0.928802

>  <reference2hits_rmsd>  (40) 
1.753441

>  <reference2minimized_rmsd>  (40) 
4.303445

>  <smiles>  (40) 
O=C(Cc1cncnc1)Nc1cccc(OC2CC(=O)N2)c1

>  <error>  (40) 


>  <mode>  (40) 
expansion

>  <∆∆G>  (40) 
-2.535609

>  <∆G_bound>  (40) 
-2.02104

>  <∆G_unbound>  (40) 
0.514568

>  <comRMSD>  (40) 
0.928802

>  <N_constrained_atoms>  (40) 
16

>  <N_unconstrained_atoms>  (40) 
6

>  <runtime>  (40) 
115.813685

>  <regarded>  (40) 
['x0434']

>  <disregarded>  (40) 
[]

>  <rdock>  (40) 
7.619446

>  <n_inspirations>  (40) 
1

>  <crystal_code>  (40) 
x2562

>  <fraction_overlapping>  (40) 
0.727273

>  <rdock_free>  (40) 
4.409937

>  <rdock_free_top10>  (40) 
4.299547

>  <rdock_pharm>  (40) 
4.434302

>  <rdock_pharm_top10>  (40) 
0.912262

>  <old_RMSD>  (40) 
4.117155

>  <filtered_reference2minimized_rmsd>  (40) 
nan

>  <based_on_x0434>  (40) 
True

>  <overlap_%>  (40) 
72.727273

$$$$
BAR-COM-4e090d3a-47
     RDKit          3D

 26 28  0  0  0  0  0  0  0  0999 V2000
    1.8840    2.0920   20.5010 C   0  0  0  0  0  0  0  0  0  0  0  0
    2.9880    2.0420   19.6650 N   0  0  0  0  0  0  0  0  0  0  0  0
    3.9220    1.0720   19.4070 C   0  0  0  0  0  0  0  0  0  0  0  0
    3.3860    3.0590   18.8580 N   0  0  0  0  0  0  0  0  0  0  0  0
    4.8690    1.3780   18.5200 C   0  0  0  0  0  0  0  0  0  0  0  0
    4.5160    2.6700   18.1660 N   0  0  0  0  0  0  0  0  0  0  0  0
    5.9260    0.5980   18.0700 C   0  0  0  0  0  0  0  0  0  0  0  0
    6.8380    0.1290   18.9670 N   0  0  0  0  0  0  0  0  0  0  0  0
    6.4780    0.1050   20.2700 C   0  0  0  0  0  0  0  0  0  0  0  0
    5.5430    0.7510   20.6880 O   0  0  0  0  0  0  0  0  0  0  0  0
    7.2540   -0.6940   21.1450 N   0  0  0  0  0  0  0  0  0  0  0  0
    8.3920   -0.2180   21.7560 C   0  0  0  0  0  0  0  0  0  0  0  0
    6.8640   -2.0530   21.5450 C   0  0  0  0  0  0  0  0  0  0  0  0
    9.1530   -1.3130   22.4820 C   0  0  0  0  0  0  0  0  0  0  0  0
    6.3280   -2.1350   22.8280 C   0  0  0  0  0  0  0  0  0  0  0  0
   10.5130   -0.7210   22.6340 C   0  0  0  0  0  0  0  0  0  0  0  0
    5.3540   -1.2360   23.2560 C   0  0  0  0  0  0  0  0  0  0  0  0
    6.7290   -3.1220   23.7490 C   0  0  0  0  0  0  0  0  0  0  0  0
   11.6860   -1.4460   22.3760 C   0  0  0  0  0  0  0  0  0  0  0  0
   10.6520    0.6170   23.0420 C   0  0  0  0  0  0  0  0  0  0  0  0
    4.8680   -1.3920   24.5500 C   0  0  0  0  0  0  0  0  0  0  0  0
    6.2450   -3.2670   25.0170 N   0  0  0  0  0  0  0  0  0  0  0  0
   12.9470   -0.9060   22.5060 C   0  0  0  0  0  0  0  0  0  0  0  0
   11.9430    1.1310   23.1580 C   0  0  0  0  0  0  0  0  0  0  0  0
    5.3060   -2.3800   25.3980 C   0  0  0  0  0  0  0  0  0  0  0  0
   13.0660    0.3900   22.8990 C   0  0  0  0  0  0  0  0  0  0  0  0
  1  2  1  0
  2  3  1  0
  2  4  1  0
  3  5  2  0
  4  6  2  0
  5  6  1  0
  5  7  1  0
  7  8  1  0
  8  9  1  0
  9 10  2  0
  9 11  1  0
 11 12  1  0
 11 13  1  0
 12 14  1  0
 13 15  1  0
 14 16  1  0
 15 17  2  0
 15 18  1  0
 16 19  2  0
 16 20  1  0
 17 21  1  0
 18 22  2  0
 19 23  1  0
 20 24  2  0
 21 25  2  0
 22 25  1  0
 23 26  2  0
 24 26  1  0
M  END
>  <minimized2hits_rmsd>  (41) 
0.682876

>  <reference2hits_rmsd>  (41) 
4.169523

>  <reference2minimized_rmsd>  (41) 
5.959885

>  <smiles>  (41) 
Cn1cc(CNC(=O)N(CCc2ccccc2)Cc2cccnc2)nn1

>  <error>  (41) 


>  <mode>  (41) 
expansion

>  <∆∆G>  (41) 
-5.674682

>  <∆G_bound>  (41) 
-4.724391

>  <∆G_unbound>  (41) 
0.950291

>  <comRMSD>  (41) 
0.682876

>  <N_constrained_atoms>  (41) 
16

>  <N_unconstrained_atoms>  (41) 
11

>  <runtime>  (41) 
94.520336

>  <regarded>  (41) 
['x0434']

>  <disregarded>  (41) 
[]

>  <rdock>  (41) 
5.850102

>  <n_inspirations>  (41) 
1

>  <crystal_code>  (41) 
x3305

>  <fraction_overlapping>  (41) 
0.576923

>  <rdock_free>  (41) 
8.866012

>  <rdock_free_top10>  (41) 
4.201743

>  <rdock_pharm>  (41) 
6.586134

>  <rdock_pharm_top10>  (41) 
6.191917

>  <old_RMSD>  (41) 
3.087283

>  <filtered_reference2minimized_rmsd>  (41) 
nan

>  <based_on_x0434>  (41) 
True

>  <overlap_%>  (41) 
57.692308

$$$$
BAR-COM-4e090d3a-49
     RDKit          3D

 19 20  0  0  0  0  0  0  0  0999 V2000
   13.6180   -2.2630   24.6790 N   0  0  0  0  0  0  0  0  0  0  0  0
   13.2240   -2.4250   23.6010 C   0  0  0  0  0  0  0  0  0  0  0  0
   12.7040   -2.6610   22.2900 C   0  0  0  0  0  0  0  0  0  0  0  0
   12.3630   -1.7830   21.5420 O   0  0  0  0  0  0  0  0  0  0  0  0
   11.8060   -0.8000   22.2790 C   0  0  0  0  0  0  0  0  0  0  0  0
   12.7880    0.0520   22.7330 C   0  0  0  0  0  0  0  0  0  0  0  0
   10.3050   -0.5690   22.6070 C   0  0  0  0  0  0  0  0  0  0  0  0
   12.4640    1.1250   23.4880 C   0  0  0  0  0  0  0  0  0  0  0  0
    9.9970    0.5240   23.3970 C   0  0  0  0  0  0  0  0  0  0  0  0
    9.2610   -1.3640   22.1540 C   0  0  0  0  0  0  0  0  0  0  0  0
   11.0720    1.4220   23.8730 C   0  0  0  0  0  0  0  0  0  0  0  0
    9.1420   -2.5420   22.4790 O   0  0  0  0  0  0  0  0  0  0  0  0
    8.3170   -0.6270   21.2490 N   0  0  0  0  0  0  0  0  0  0  0  0
    6.9940   -0.8860   21.2380 C   0  0  0  0  0  0  0  0  0  0  0  0
    6.4700   -0.1890   20.1550 C   0  0  0  0  0  0  0  0  0  0  0  0
    5.3480    0.6160   20.2940 C   0  0  0  0  0  0  0  0  0  0  0  0
    6.9010   -0.1510   18.8380 C   0  0  0  0  0  0  0  0  0  0  0  0
    4.8340    1.2940   19.2330 N   0  0  0  0  0  0  0  0  0  0  0  0
    5.8620    0.8770   17.9310 S   0  0  0  0  0  0  0  0  0  0  0  0
  1  2  3  0
  2  3  1  0
  3  4  1  0
  4  5  1  0
  5  6  2  0
  5  7  1  0
  6  8  1  0
  7  9  2  0
  7 10  1  0
  8 11  2  0
  9 11  1  0
 10 12  2  0
 10 13  1  0
 13 14  1  0
 14 15  1  0
 15 16  1  0
 15 17  2  0
 16 18  2  0
 17 19  1  0
 18 19  1  0
M  END
>  <minimized2hits_rmsd>  (42) 
0.558347

>  <reference2hits_rmsd>  (42) 
6.683055

>  <reference2minimized_rmsd>  (42) 
6.640822

>  <smiles>  (42) 
N#CCOc1ccccc1C(=O)NCc1cnsc1

>  <error>  (42) 


>  <mode>  (42) 
expansion

>  <∆∆G>  (42) 
-7.44103

>  <∆G_bound>  (42) 
-5.000141

>  <∆G_unbound>  (42) 
2.440889

>  <comRMSD>  (42) 
0.558347

>  <N_constrained_atoms>  (42) 
15

>  <N_unconstrained_atoms>  (42) 
5

>  <runtime>  (42) 
43.455464

>  <regarded>  (42) 
['x0434']

>  <disregarded>  (42) 
[]

>  <rdock>  (42) 
6.556791

>  <n_inspirations>  (42) 
1

>  <crystal_code>  (42) 
x2764

>  <fraction_overlapping>  (42) 
0.684211

>  <rdock_free>  (42) 
6.69398

>  <rdock_free_top10>  (42) 
5.003712

>  <rdock_pharm>  (42) 
6.295996

>  <rdock_pharm_top10>  (42) 
5.569453

>  <old_RMSD>  (42) 
6.504107

>  <filtered_reference2minimized_rmsd>  (42) 
nan

>  <based_on_x0434>  (42) 
True

>  <overlap_%>  (42) 
68.421053

$$$$
BAR-COM-4e090d3a-57
     RDKit          3D

 28 30  0  0  0  0  0  0  0  0999 V2000
    8.5900    0.8100   21.1000 O   0  0  0  0  0  0  0  0  0  0  0  0
    8.2590   -0.3110   21.4710 C   0  0  0  0  0  0  0  0  0  0  0  0
    9.1300   -1.1990   22.0920 N   0  0  0  0  0  0  0  0  0  0  0  0
    6.7790   -0.7350   21.2590 C   0  0  2  0  0  0  0  0  0  0  0  0
   10.4380   -0.7730   22.3920 C   0  0  0  0  0  0  0  0  0  0  0  0
    6.6550   -2.1190   20.9810 O   0  0  0  0  0  0  0  0  0  0  0  0
    6.2370   -0.0210   20.1910 C   0  0  0  0  0  0  0  0  0  0  0  0
   11.6130   -1.3770   21.9660 C   0  0  0  0  0  0  0  0  0  0  0  0
   10.4970    0.3750   23.1830 C   0  0  0  0  0  0  0  0  0  0  0  0
    5.0330    0.6680   20.3760 C   0  0  0  0  0  0  0  0  0  0  0  0
    6.8370    0.0490   18.9400 C   0  0  0  0  0  0  0  0  0  0  0  0
   12.8750   -0.8480   22.2960 C   0  0  0  0  0  0  0  0  0  0  0  0
   11.8420    0.9290   23.5180 C   0  0  0  0  0  0  0  0  0  0  0  0
    9.2900    0.9550   23.6430 N   0  0  0  0  0  0  0  0  0  0  0  0
    4.4650    1.4030   19.3270 C   0  0  0  0  0  0  0  0  0  0  0  0
    6.3450    0.7440   17.8990 N   0  0  0  0  0  0  0  0  0  0  0  0
   12.9770    0.3000   23.0580 C   0  0  0  0  0  0  0  0  0  0  0  0
    8.5210   -0.1250   24.7170 S   0  0  0  0  0  0  0  0  0  0  0  0
    5.1040    1.4440   18.1130 C   0  0  0  0  0  0  0  0  0  0  0  0
    8.2710    0.5920   25.9410 O   0  0  0  0  0  0  0  0  0  0  0  0
    7.4790   -0.8220   24.0000 O   0  0  0  0  0  0  0  0  0  0  0  0
    9.9350   -1.2050   24.8850 C   0  0  0  0  0  0  0  0  0  0  0  0
    9.8330   -2.5960   25.0480 C   0  0  0  0  0  0  0  0  0  0  0  0
   11.1920   -0.6100   24.8380 C   0  0  0  0  0  0  0  0  0  0  0  0
   10.9950   -3.3680   25.1600 C   0  0  0  0  0  0  0  0  0  0  0  0
   12.3400   -1.3770   24.9440 C   0  0  0  0  0  0  0  0  0  0  0  0
   12.2390   -2.7500   25.1070 C   0  0  0  0  0  0  0  0  0  0  0  0
   13.3650   -3.4520   25.2210 F   0  0  0  0  0  0  0  0  0  0  0  0
  1  2  2  0
  2  3  1  0
  2  4  1  0
  3  5  1  0
  4  6  1  6
  4  7  1  0
  5  8  2  0
  5  9  1  0
  7 10  2  0
  7 11  1  0
  8 12  1  0
  9 13  2  0
  9 14  1  0
 10 15  1  0
 11 16  2  0
 12 17  2  0
 13 17  1  0
 18 14  1  0
 15 19  2  0
 16 19  1  0
 18 20  2  0
 18 21  2  0
 18 22  1  0
 22 23  2  0
 22 24  1  0
 23 25  1  0
 24 26  2  0
 25 27  2  0
 26 27  1  0
 27 28  1  0
M  END
>  <minimized2hits_rmsd>  (43) 
0.548715

>  <reference2hits_rmsd>  (43) 
3.305936

>  <reference2minimized_rmsd>  (43) 
3.424191

>  <smiles>  (43) 
O=C(Nc1ccccc1NS(=O)(=O)c1ccc(F)cc1)C(O)c1cccnc1

>  <error>  (43) 


>  <mode>  (43) 
expansion

>  <∆∆G>  (43) 
-4.529911

>  <∆G_bound>  (43) 
-2.713885

>  <∆G_unbound>  (43) 
1.816026

>  <comRMSD>  (43) 
0.548715

>  <N_constrained_atoms>  (43) 
16

>  <N_unconstrained_atoms>  (43) 
12

>  <runtime>  (43) 
53.727589

>  <regarded>  (43) 
['x0434']

>  <disregarded>  (43) 
[]

>  <rdock>  (43) 
7.420878

>  <n_inspirations>  (43) 
1

>  <crystal_code>  (43) 
x3298

>  <fraction_overlapping>  (43) 
0.535714

>  <rdock_free>  (43) 
6.708492

>  <rdock_free_top10>  (43) 
3.267238

>  <rdock_pharm>  (43) 
4.489407

>  <rdock_pharm_top10>  (43) 
2.26705

>  <old_RMSD>  (43) 
4.761699

>  <filtered_reference2minimized_rmsd>  (43) 
nan

>  <based_on_x0434>  (43) 
True

>  <overlap_%>  (43) 
53.571429

$$$$
BEN-DND-031a96cc-8
     RDKit          3D

 17 18  0  0  0  0  0  0  0  0999 V2000
    6.3290   -1.9450   21.7430 C   0  0  0  0  0  0  0  0  0  0  0  0
    6.9580   -0.8280   21.1130 C   0  0  0  0  0  0  0  0  0  0  0  0
    8.2120   -0.4150   21.5030 C   0  0  0  0  0  0  0  0  0  0  0  0
    6.3140   -0.0730   20.0370 C   0  0  0  0  0  0  0  0  0  0  0  0
    8.4520    0.9230   21.0530 O   0  0  0  0  0  0  0  0  0  0  0  0
    9.1060   -1.1930   22.2310 N   0  0  0  0  0  0  0  0  0  0  0  0
    5.1320    0.6320   20.2250 C   0  0  0  0  0  0  0  0  0  0  0  0
    6.8760   -0.0320   18.7700 C   0  0  0  0  0  0  0  0  0  0  0  0
   10.3400   -0.7020   22.6260 C   0  0  0  0  0  0  0  0  0  0  0  0
    4.5900    1.3320   19.1570 C   0  0  0  0  0  0  0  0  0  0  0  0
    6.3700    0.6420   17.7170 N   0  0  0  0  0  0  0  0  0  0  0  0
   10.4260    0.4110   23.4380 C   0  0  0  0  0  0  0  0  0  0  0  0
   11.4820   -1.3700   22.1530 C   0  0  0  0  0  0  0  0  0  0  0  0
    5.2320    1.3160   17.9330 C   0  0  0  0  0  0  0  0  0  0  0  0
   11.7570    0.9250   23.8070 C   0  0  0  0  0  0  0  0  0  0  0  0
   12.7530   -0.9270   22.4740 C   0  0  0  0  0  0  0  0  0  0  0  0
   12.9410    0.1770   23.2650 C   0  0  0  0  0  0  0  0  0  0  0  0
  1  2  2  3
  2  3  1  0
  2  4  1  0
  3  5  2  0
  3  6  1  0
  4  7  2  0
  4  8  1  0
  6  9  1  0
  7 10  1  0
  8 11  2  0
  9 12  2  0
  9 13  1  0
 10 14  2  0
 11 14  1  0
 12 15  1  0
 13 16  2  0
 15 17  2  0
 16 17  1  0
M  END
>  <minimized2hits_rmsd>  (44) 
0.447224

>  <reference2hits_rmsd>  (44) 
0.797279

>  <reference2minimized_rmsd>  (44) 
0.820593

>  <smiles>  (44) 
C=C(C(=O)Nc1ccccc1)c1cccnc1

>  <error>  (44) 


>  <mode>  (44) 
expansion

>  <∆∆G>  (44) 
-8.364588

>  <∆G_bound>  (44) 
-7.947583

>  <∆G_unbound>  (44) 
0.417004

>  <comRMSD>  (44) 
0.447224

>  <N_constrained_atoms>  (44) 
16

>  <N_unconstrained_atoms>  (44) 
1

>  <runtime>  (44) 
46.118822

>  <regarded>  (44) 
['x0434']

>  <disregarded>  (44) 
[]

>  <rdock>  (44) 
1.610108

>  <n_inspirations>  (44) 
1

>  <crystal_code>  (44) 
x10022

>  <fraction_overlapping>  (44) 
0.882353

>  <rdock_free>  (44) 
5.906973

>  <rdock_free_top10>  (44) 
5.883735

>  <rdock_pharm>  (44) 
1.70905

>  <rdock_pharm_top10>  (44) 
0.930888

>  <old_RMSD>  (44) 
0.597508

>  <filtered_reference2minimized_rmsd>  (44) 
0.820593

>  <based_on_x0434>  (44) 
True

>  <overlap_%>  (44) 
88.235294

$$$$
FRA-FAC-9ed5a63a-1
     RDKit          3D

 16 17  0  0  0  0  0  0  0  0999 V2000
   11.2480   -3.4920   20.5020 O   0  0  0  0  0  0  0  0  0  0  0  0
   12.2280   -2.9590   20.9110 C   0  0  0  0  0  0  0  0  0  0  0  0
   13.4680   -3.5600   20.7910 C   0  0  0  0  0  0  0  0  0  0  0  0
   12.3390   -1.7410   21.5220 N   0  0  0  0  0  0  0  0  0  0  0  0
   13.7640   -4.6060   19.9460 C   0  0  0  0  0  0  0  0  0  0  0  0
   11.7990   -1.3480   22.7420 C   0  0  0  0  0  0  0  0  0  0  0  0
   14.3760   -5.7580   20.3040 C   0  0  0  0  0  0  0  0  0  0  0  0
   15.0660   -4.3850   19.2920 C   0  0  0  0  0  0  0  0  0  0  0  0
   12.5930   -1.0510   23.8440 C   0  0  0  0  0  0  0  0  0  0  0  0
   10.4050   -1.2420   22.8600 C   0  0  0  0  0  0  0  0  0  0  0  0
   15.4170   -5.4430   20.9720 C   0  0  0  0  0  0  0  0  0  0  0  0
   15.6630   -5.5190   18.8580 C   0  0  0  0  0  0  0  0  0  0  0  0
   11.9720   -0.6650   24.9970 C   0  0  0  0  0  0  0  0  0  0  0  0
    9.7440   -0.8620   23.9830 N   0  0  0  0  0  0  0  0  0  0  0  0
   16.4440   -5.2970   19.9460 C   0  0  0  0  0  0  0  0  0  0  0  0
   10.5940   -0.5740   25.0590 C   0  0  0  0  0  0  0  0  0  0  0  0
  1  2  2  0
  2  3  1  0
  2  4  1  0
  3  5  1  0
  4  6  1  0
  5  7  1  0
  5  8  1  0
  6  9  2  0
  6 10  1  0
  7 11  1  0
  8 12  1  0
  9 13  1  0
 10 14  2  0
 11 15  1  0
 12 15  1  0
 13 16  2  0
 14 16  1  0
M  END
>  <minimized2hits_rmsd>  (45) 
1.559261

>  <reference2hits_rmsd>  (45) 
6.692748

>  <reference2minimized_rmsd>  (45) 
6.611718

>  <smiles>  (45) 
O=C(CC1CCCCC1)Nc1cccnc1

>  <error>  (45) 


>  <mode>  (45) 
expansion

>  <∆∆G>  (45) 
16.016056

>  <∆G_bound>  (45) 
16.474466

>  <∆G_unbound>  (45) 
0.45841

>  <comRMSD>  (45) 
1.559261

>  <N_constrained_atoms>  (45) 
7

>  <N_unconstrained_atoms>  (45) 
9

>  <runtime>  (45) 
1985.96725

>  <regarded>  (45) 
['x0395']

>  <disregarded>  (45) 
[]

>  <rdock>  (45) 
6.601644

>  <n_inspirations>  (45) 
1

>  <crystal_code>  (45) 
x0678

>  <fraction_overlapping>  (45) 
0.375

>  <rdock_free>  (45) 
6.708759

>  <rdock_free_top10>  (45) 
5.729423

>  <rdock_pharm>  (45) 
5.388609

>  <rdock_pharm_top10>  (45) 
5.360195

>  <old_RMSD>  (45) 
7.350024

>  <filtered_reference2minimized_rmsd>  (45) 
nan

>  <based_on_x0434>  (45) 
False

>  <overlap_%>  (45) 
37.5

$$$$
MAK-UNK-0d6072ac-4
     RDKit          3D

 19 21  0  0  0  0  0  0  0  0999 V2000
   13.4060    0.2620   22.8080 C   0  0  0  0  0  0  0  0  0  0  0  0
   12.6320    0.3150   23.9740 C   0  0  1  0  0  0  0  0  0  0  0  0
   11.5860    1.2360   23.9920 C   0  0  0  0  0  0  0  0  0  0  0  0
   12.1110   -0.9980   24.1820 C   0  0  0  0  0  0  0  0  0  0  0  0
   11.8170    2.4810   23.3250 O   0  0  0  0  0  0  0  0  0  0  0  0
   10.4260    0.9150   24.6010 O   0  0  0  0  0  0  0  0  0  0  0  0
   12.5980   -2.0800   24.8750 C   0  0  0  0  0  0  0  0  0  0  0  0
   11.0000   -1.0210   23.5540 C   0  0  0  0  0  0  0  0  0  0  0  0
   11.7540   -3.3450   24.8490 C   0  0  0  0  0  0  0  0  0  0  0  0
   10.2530   -2.0470   23.4940 C   0  0  0  0  0  0  0  0  0  0  0  0
   10.4200   -3.3140   24.0360 C   0  0  0  0  0  0  0  0  0  0  0  0
    9.1520   -1.9300   22.8220 N   0  0  0  0  0  0  0  0  0  0  0  0
    8.4740   -3.1160   22.8210 C   0  0  0  0  0  0  0  0  0  0  0  0
    9.2630   -4.1190   23.6150 C   0  0  0  0  0  0  0  0  0  0  0  0
    7.3330   -3.2720   22.2000 C   0  0  0  0  0  0  0  0  0  0  0  0
    8.4460   -5.4610   23.5650 C   0  0  0  0  0  0  0  0  0  0  0  0
    6.7150   -4.4110   22.1710 C   0  0  0  0  0  0  0  0  0  0  0  0
    7.2390   -5.4510   22.8080 C   0  0  0  0  0  0  0  0  0  0  0  0
    6.2590   -6.7890   22.5900 Cl  0  0  0  0  0  0  0  0  0  0  0  0
  2  1  1  6
  2  3  1  0
  2  4  1  0
  3  5  2  0
  3  6  1  0
  4  7  2  0
  4  8  1  0
  7  9  1  0
  8 10  2  0
  9 11  2  0
 10 11  1  0
 10 12  1  0
 12 13  1  0
 11 14  1  0
 13 14  2  0
 13 15  1  0
 14 16  1  0
 15 17  2  0
 16 18  2  0
 17 18  1  0
 18 19  1  0
M  END
>  <minimized2hits_rmsd>  (46) 
2.051942

>  <reference2hits_rmsd>  (46) 
26.611184

>  <reference2minimized_rmsd>  (46) 
26.094859

>  <smiles>  (46) 
CC(C(=O)O)c1ccc2c(c1)[nH]c1ccc(Cl)cc12

>  <error>  (46) 


>  <mode>  (46) 
expansion

>  <∆∆G>  (46) 
-4.112086

>  <∆G_bound>  (46) 
-3.887938

>  <∆G_unbound>  (46) 
0.224148

>  <comRMSD>  (46) 
2.051942

>  <N_constrained_atoms>  (46) 
16

>  <N_unconstrained_atoms>  (46) 
5

>  <runtime>  (46) 
58.419836

>  <regarded>  (46) 
['x0749']

>  <disregarded>  (46) 
[]

>  <rdock>  (46) 
27.259125

>  <n_inspirations>  (46) 
1

>  <crystal_code>  (46) 
x2659

>  <fraction_overlapping>  (46) 
0.0

>  <rdock_free>  (46) 
28.741613

>  <rdock_free_top10>  (46) 
26.442071

>  <rdock_pharm>  (46) 
26.480462

>  <rdock_pharm_top10>  (46) 
26.43552

>  <old_RMSD>  (46) 
25.287896

>  <filtered_reference2minimized_rmsd>  (46) 
nan

>  <based_on_x0434>  (46) 
False

>  <overlap_%>  (46) 
0.0

$$$$
JAN-GHE-83b26c96-1
     RDKit          3D

 20 21  0  0  0  0  0  0  0  0999 V2000
    8.6360   -3.5060   23.6440 C   0  0  0  0  0  0  0  0  0  0  0  0
    8.5760   -2.5780   22.5690 C   0  0  0  0  0  0  0  0  0  0  0  0
    8.9810   -1.2740   22.7720 C   0  0  2  0  0  0  0  0  0  0  0  0
    8.4040   -0.3170   21.9070 C   0  0  0  0  0  0  0  0  0  0  0  0
   10.3550   -0.9340   22.8130 C   0  0  0  0  0  0  0  0  0  0  0  0
    9.0640    0.6110   21.4380 O   0  0  0  0  0  0  0  0  0  0  0  0
    7.0980   -0.4400   21.6030 N   0  0  0  0  0  0  0  0  0  0  0  0
   11.4180   -1.8090   22.7610 C   0  0  0  0  0  0  0  0  0  0  0  0
   10.7620    0.5140   22.9140 C   0  0  0  0  0  0  0  0  0  0  0  0
    6.6350    0.0480   20.4340 C   0  0  0  0  0  0  0  0  0  0  0  0
   12.7530   -1.4690   22.7880 C   0  0  0  0  0  0  0  0  0  0  0  0
   12.2120    0.8890   22.9290 C   0  0  0  0  0  0  0  0  0  0  0  0
    7.1630   -0.2920   19.0860 C   0  0  0  0  0  0  0  0  0  0  0  0
    5.5580    0.9500   20.4510 C   0  0  0  0  0  0  0  0  0  0  0  0
   13.1430   -0.1400   22.8690 C   0  0  0  0  0  0  0  0  0  0  0  0
   12.5710    2.5610   22.9840 Cl  0  0  0  0  0  0  0  0  0  0  0  0
    6.6590    0.2260   17.9610 N   0  0  0  0  0  0  0  0  0  0  0  0
    5.0980    1.4340   19.2270 C   0  0  0  0  0  0  0  0  0  0  0  0
    4.9510    1.3600   21.6410 C   0  0  0  0  0  0  0  0  0  0  0  0
    5.6320    1.0880   18.0030 N   0  0  0  0  0  0  0  0  0  0  0  0
  1  2  1  0
  3  2  1  6
  3  4  1  0
  3  5  1  0
  4  6  2  0
  4  7  1  0
  5  8  2  0
  5  9  1  0
  7 10  1  0
  8 11  1  0
  9 12  2  0
 10 13  2  0
 10 14  1  0
 11 15  2  0
 12 15  1  0
 12 16  1  0
 13 17  1  0
 14 18  2  0
 14 19  1  0
 17 20  2  0
 18 20  1  0
M  END
>  <minimized2hits_rmsd>  (47) 
1.000472

>  <reference2hits_rmsd>  (47) 
1.444103

>  <reference2minimized_rmsd>  (47) 
1.573004

>  <smiles>  (47) 
CCC(C(=O)Nc1cnncc1C)c1cccc(Cl)c1

>  <error>  (47) 


>  <mode>  (47) 
expansion

>  <∆∆G>  (47) 
-5.408659

>  <∆G_bound>  (47) 
-5.286529

>  <∆G_unbound>  (47) 
0.12213

>  <comRMSD>  (47) 
1.000472

>  <N_constrained_atoms>  (47) 
16

>  <N_unconstrained_atoms>  (47) 
4

>  <runtime>  (47) 
72.158125

>  <regarded>  (47) 
['x0678']

>  <disregarded>  (47) 
[]

>  <rdock>  (47) 
3.115124

>  <n_inspirations>  (47) 
1

>  <crystal_code>  (47) 
x10329

>  <fraction_overlapping>  (47) 
0.75

>  <rdock_free>  (47) 
4.748174

>  <rdock_free_top10>  (47) 
2.603855

>  <rdock_pharm>  (47) 
3.332193

>  <rdock_pharm_top10>  (47) 
1.286613

>  <old_RMSD>  (47) 
1.725598

>  <filtered_reference2minimized_rmsd>  (47) 
nan

>  <based_on_x0434>  (47) 
False

>  <overlap_%>  (47) 
75.0

$$$$
JAN-GHE-83b26c96-2
     RDKit          3D

 22 23  0  0  0  0  0  0  0  0999 V2000
    4.2470   -0.3950   22.9110 C   0  0  0  0  0  0  0  0  0  0  0  0
    4.0350    0.8620   22.2700 C   0  0  0  0  0  0  0  0  0  0  0  0
    2.9250    1.3840   22.1970 O   0  0  0  0  0  0  0  0  0  0  0  0
    5.1930    1.4090   21.7450 N   0  0  0  0  0  0  0  0  0  0  0  0
    5.6120    1.0010   20.5110 C   0  0  0  0  0  0  0  0  0  0  0  0
    4.8720    1.3770   19.3610 C   0  0  0  0  0  0  0  0  0  0  0  0
    6.7740    0.2040   20.3570 C   0  0  0  0  0  0  0  0  0  0  0  0
    5.3170    0.9450   18.1230 C   0  0  0  0  0  0  0  0  0  0  0  0
    7.1510   -0.2120   18.9950 C   0  0  0  0  0  0  0  0  0  0  0  0
    7.5990   -0.2250   21.3820 N   0  0  0  0  0  0  0  0  0  0  0  0
    6.4050    0.1850   17.9740 N   0  0  0  0  0  0  0  0  0  0  0  0
    8.6710    0.5080   21.9470 C   0  0  0  0  0  0  0  0  0  0  0  0
    9.2400    1.4420   21.3690 O   0  0  0  0  0  0  0  0  0  0  0  0
    9.0290    0.1250   23.2570 C   0  0  2  0  0  0  0  0  0  0  0  0
    9.0610    1.2140   24.1300 C   0  0  0  0  0  0  0  0  0  0  0  0
   10.4510   -0.4430   23.3380 C   0  0  0  0  0  0  0  0  0  0  0  0
   11.1610   -0.2290   24.5260 C   0  0  0  0  0  0  0  0  0  0  0  0
   11.0340   -1.1620   22.2780 C   0  0  0  0  0  0  0  0  0  0  0  0
   12.4640   -0.7020   24.7190 C   0  0  0  0  0  0  0  0  0  0  0  0
   12.3160   -1.6610   22.4100 C   0  0  0  0  0  0  0  0  0  0  0  0
   13.0580   -1.4130   23.6940 C   0  0  0  0  0  0  0  0  0  0  0  0
   13.0050   -2.5380   21.1290 Cl  0  0  0  0  0  0  0  0  0  0  0  0
  1  2  1  0
  2  3  2  0
  2  4  1  0
  4  5  1  0
  5  6  2  0
  5  7  1  0
  6  8  1  0
  7  9  2  0
  7 10  1  0
  8 11  2  0
  9 11  1  0
 10 12  1  0
 12 13  2  0
 12 14  1  0
 14 15  1  1
 14 16  1  0
 16 17  2  0
 16 18  1  0
 17 19  1  0
 18 20  2  0
 19 21  2  0
 20 21  1  0
 20 22  1  0
M  END
>  <minimized2hits_rmsd>  (48) 
0.517467

>  <reference2hits_rmsd>  (48) 
0.778599

>  <reference2minimized_rmsd>  (48) 
1.173826

>  <smiles>  (48) 
CC(=O)Nc1ccncc1NC(=O)C(C)c1cccc(Cl)c1

>  <error>  (48) 


>  <mode>  (48) 
expansion

>  <∆∆G>  (48) 
-8.635968

>  <∆G_bound>  (48) 
-8.03034

>  <∆G_unbound>  (48) 
0.605627

>  <comRMSD>  (48) 
0.517467

>  <N_constrained_atoms>  (48) 
16

>  <N_unconstrained_atoms>  (48) 
6

>  <runtime>  (48) 
57.937586

>  <regarded>  (48) 
['x0678']

>  <disregarded>  (48) 
[]

>  <rdock>  (48) 
5.261872

>  <n_inspirations>  (48) 
1

>  <crystal_code>  (48) 
x11372

>  <fraction_overlapping>  (48) 
0.727273

>  <rdock_free>  (48) 
6.573352

>  <rdock_free_top10>  (48) 
3.473317

>  <rdock_pharm>  (48) 
1.996934

>  <rdock_pharm_top10>  (48) 
1.996934

>  <old_RMSD>  (48) 
1.733737

>  <filtered_reference2minimized_rmsd>  (48) 
nan

>  <based_on_x0434>  (48) 
False

>  <overlap_%>  (48) 
72.727273

$$$$
JAN-GHE-83b26c96-3
     RDKit          3D

 23 25  0  0  0  0  0  0  0  0999 V2000
    8.2010   -0.7280   24.0700 C   0  0  0  0  0  0  0  0  0  0  0  0
    9.0390    0.0820   23.2390 C   0  0  2  0  0  0  0  0  0  0  0  0
    8.5820    0.3590   21.9510 C   0  0  0  0  0  0  0  0  0  0  0  0
   10.4590   -0.4630   23.3340 C   0  0  0  0  0  0  0  0  0  0  0  0
    9.2510    1.4890   21.3620 O   0  0  0  0  0  0  0  0  0  0  0  0
    7.5470   -0.3920   21.3630 N   0  0  0  0  0  0  0  0  0  0  0  0
   11.1620   -0.2640   24.5170 C   0  0  0  0  0  0  0  0  0  0  0  0
   11.0780   -1.1560   22.3030 C   0  0  0  0  0  0  0  0  0  0  0  0
    6.7590    0.0710   20.2990 C   0  0  0  0  0  0  0  0  0  0  0  0
   12.4650   -0.7430   24.6790 C   0  0  0  0  0  0  0  0  0  0  0  0
   12.3700   -1.6390   22.4600 C   0  0  0  0  0  0  0  0  0  0  0  0
    7.1030   -0.1740   18.9860 C   0  0  0  0  0  0  0  0  0  0  0  0
    5.5630    0.8220   20.5330 C   0  0  0  0  0  0  0  0  0  0  0  0
   13.0700   -1.4370   23.6430 C   0  0  0  0  0  0  0  0  0  0  0  0
   13.0510   -2.4840   21.1540 Cl  0  0  0  0  0  0  0  0  0  0  0  0
    6.3850    0.2730   17.9450 N   0  0  0  0  0  0  0  0  0  0  0  0
    4.7850    1.3030   19.4880 C   0  0  0  0  0  0  0  0  0  0  0  0
    5.0120    1.1760   21.8620 N   0  0  0  0  0  0  0  0  0  0  0  0
    5.2320    1.0120   18.1090 C   0  0  0  0  0  0  0  0  0  0  0  0
    4.2410    0.3420   22.5800 C   0  0  0  0  0  0  0  0  0  0  0  0
    5.1850    2.3730   22.5660 N   0  0  0  0  0  0  0  0  0  0  0  0
    3.8970    0.9470   23.7410 C   0  0  0  0  0  0  0  0  0  0  0  0
    4.4750    2.1890   23.7300 C   0  0  0  0  0  0  0  0  0  0  0  0
  2  1  1  6
  2  3  1  0
  2  4  1  0
  3  5  2  0
  3  6  1  0
  4  7  2  0
  4  8  1  0
  6  9  1  0
  7 10  1  0
  8 11  2  0
  9 12  2  0
  9 13  1  0
 10 14  2  0
 11 14  1  0
 11 15  1  0
 12 16  1  0
 13 17  2  0
 13 18  1  0
 16 19  2  0
 17 19  1  0
 18 20  1  0
 18 21  1  0
 20 22  2  0
 21 23  2  0
 22 23  1  0
M  END
>  <minimized2hits_rmsd>  (49) 
0.522905

>  <reference2hits_rmsd>  (49) 
0.733938

>  <reference2minimized_rmsd>  (49) 
1.148743

>  <smiles>  (49) 
CC(C(=O)Nc1cnccc1-n1cccn1)c1cccc(Cl)c1

>  <error>  (49) 


>  <mode>  (49) 
expansion

>  <∆∆G>  (49) 
-8.209558

>  <∆G_bound>  (49) 
-7.271902

>  <∆G_unbound>  (49) 
0.937656

>  <comRMSD>  (49) 
0.522905

>  <N_constrained_atoms>  (49) 
16

>  <N_unconstrained_atoms>  (49) 
7

>  <runtime>  (49) 
70.99881

>  <regarded>  (49) 
['x0678']

>  <disregarded>  (49) 
[]

>  <rdock>  (49) 
6.230903

>  <n_inspirations>  (49) 
1

>  <crystal_code>  (49) 
x10377

>  <fraction_overlapping>  (49) 
0.695652

>  <rdock_free>  (49) 
5.925194

>  <rdock_free_top10>  (49) 
3.581304

>  <rdock_pharm>  (49) 
3.118205

>  <rdock_pharm_top10>  (49) 
2.434863

>  <old_RMSD>  (49) 
1.215925

>  <filtered_reference2minimized_rmsd>  (49) 
nan

>  <based_on_x0434>  (49) 
False

>  <overlap_%>  (49) 
69.565217

$$$$
JAN-GHE-83b26c96-8
     RDKit          3D

 21 22  0  0  0  0  0  0  0  0999 V2000
    8.5030   -3.4710   24.7900 C   0  0  0  0  0  0  0  0  0  0  0  0
    9.0560   -2.2950   24.2140 C   0  0  0  0  0  0  0  0  0  0  0  0
    8.2540   -1.3870   23.5400 C   0  0  0  0  0  0  0  0  0  0  0  0
    8.8340   -0.1900   23.1070 C   0  0  2  0  0  0  0  0  0  0  0  0
    8.4560    0.2880   21.8710 C   0  0  0  0  0  0  0  0  0  0  0  0
   10.3190   -0.3960   23.0930 C   0  0  0  0  0  0  0  0  0  0  0  0
    9.0610    1.2570   21.3730 O   0  0  0  0  0  0  0  0  0  0  0  0
    7.4120   -0.3240   21.2410 N   0  0  0  0  0  0  0  0  0  0  0  0
   11.1030    0.3090   23.9660 C   0  0  0  0  0  0  0  0  0  0  0  0
   10.8990   -1.2970   22.2000 C   0  0  0  0  0  0  0  0  0  0  0  0
    6.7280    0.1760   20.1780 C   0  0  0  0  0  0  0  0  0  0  0  0
   12.4570    0.1250   23.9450 C   0  0  0  0  0  0  0  0  0  0  0  0
   12.2640   -1.4740   22.1970 C   0  0  0  0  0  0  0  0  0  0  0  0
    7.0840   -0.1210   18.7670 C   0  0  0  0  0  0  0  0  0  0  0  0
    5.6390    1.0120   20.3670 C   0  0  0  0  0  0  0  0  0  0  0  0
   13.0420   -0.7600   23.0650 C   0  0  0  0  0  0  0  0  0  0  0  0
   12.9780   -2.5730   21.1190 Cl  0  0  0  0  0  0  0  0  0  0  0  0
    6.3590    0.4330   17.7090 N   0  0  0  0  0  0  0  0  0  0  0  0
    4.9770    1.5110   19.2500 C   0  0  0  0  0  0  0  0  0  0  0  0
    5.1810    1.3780   21.6200 C   0  0  0  0  0  0  0  0  0  0  0  0
    5.2360    1.3040   17.9040 C   0  0  0  0  0  0  0  0  0  0  0  0
  1  2  1  0
  2  3  1  0
  4  3  1  6
  4  5  1  0
  4  6  1  0
  5  7  2  0
  5  8  1  0
  6  9  2  0
  6 10  1  0
  8 11  1  0
  9 12  1  0
 10 13  2  0
 11 14  2  0
 11 15  1  0
 12 16  2  0
 13 16  1  0
 13 17  1  0
 14 18  1  0
 15 19  2  0
 15 20  1  0
 18 21  2  0
 19 21  1  0
M  END
>  <minimized2hits_rmsd>  (50) 
0.627103

>  <reference2hits_rmsd>  (50) 
0.856636

>  <reference2minimized_rmsd>  (50) 
0.920878

>  <smiles>  (50) 
CCCC(C(=O)Nc1cnccc1C)c1cccc(Cl)c1

>  <error>  (50) 


>  <mode>  (50) 
expansion

>  <∆∆G>  (50) 
-8.409747

>  <∆G_bound>  (50) 
-8.118808

>  <∆G_unbound>  (50) 
0.290939

>  <comRMSD>  (50) 
0.627103

>  <N_constrained_atoms>  (50) 
16

>  <N_unconstrained_atoms>  (50) 
5

>  <runtime>  (50) 
57.990658

>  <regarded>  (50) 
['x0678']

>  <disregarded>  (50) 
[]

>  <rdock>  (50) 
7.397025

>  <n_inspirations>  (50) 
1

>  <crystal_code>  (50) 
x10423

>  <fraction_overlapping>  (50) 
0.761905

>  <rdock_free>  (50) 
2.132875

>  <rdock_free_top10>  (50) 
2.132875

>  <rdock_pharm>  (50) 
2.275806

>  <rdock_pharm_top10>  (50) 
1.503408

>  <old_RMSD>  (50) 
1.310378

>  <filtered_reference2minimized_rmsd>  (50) 
nan

>  <based_on_x0434>  (50) 
False

>  <overlap_%>  (50) 
76.190476

$$$$
JAN-GHE-83b26c96-9
     RDKit          3D

 21 22  0  0  0  0  0  0  0  0999 V2000
    5.0060    1.1840   21.7860 C   0  0  0  0  0  0  0  0  0  0  0  0
    5.5230    0.8880   20.4900 C   0  0  0  0  0  0  0  0  0  0  0  0
    4.9350    1.4510   19.3620 C   0  0  0  0  0  0  0  0  0  0  0  0
    6.6210    0.0290   20.3480 C   0  0  0  0  0  0  0  0  0  0  0  0
    5.4540    1.1520   18.1100 C   0  0  0  0  0  0  0  0  0  0  0  0
    7.0590   -0.2080   19.0640 C   0  0  0  0  0  0  0  0  0  0  0  0
    7.2340   -0.5490   21.3990 N   0  0  0  0  0  0  0  0  0  0  0  0
    6.4980    0.3400   17.9440 N   0  0  0  0  0  0  0  0  0  0  0  0
    8.4520   -0.1570   21.9690 C   0  0  0  0  0  0  0  0  0  0  0  0
    9.0350    0.8660   21.5970 O   0  0  0  0  0  0  0  0  0  0  0  0
    9.0930   -0.9700   23.0690 C   0  0  1  0  0  0  0  0  0  0  0  0
   10.4580   -0.8040   23.0250 C   0  0  0  0  0  0  0  0  0  0  0  0
    8.4940   -0.4330   24.4080 C   0  0  0  0  0  0  0  0  0  0  0  0
   11.3560   -1.8650   22.9270 C   0  0  0  0  0  0  0  0  0  0  0  0
   10.8970    0.4870   23.0670 C   0  0  0  0  0  0  0  0  0  0  0  0
    9.4280   -0.0810   25.3820 C   0  0  0  0  0  0  0  0  0  0  0  0
    7.4970   -1.4350   25.0090 C   0  0  0  0  0  0  0  0  0  0  0  0
   12.7120   -1.5940   22.8680 C   0  0  0  0  0  0  0  0  0  0  0  0
   12.2190    0.7510   22.9970 C   0  0  0  0  0  0  0  0  0  0  0  0
   13.1380   -0.2720   22.9010 C   0  0  0  0  0  0  0  0  0  0  0  0
   12.6170    2.4110   23.0040 Cl  0  0  0  0  0  0  0  0  0  0  0  0
  1  2  1  0
  2  3  2  0
  2  4  1  0
  3  5  1  0
  4  6  2  0
  4  7  1  0
  5  8  2  0
  6  8  1  0
  7  9  1  0
  9 10  2  0
  9 11  1  0
 11 12  1  0
 11 13  1  1
 12 14  2  0
 12 15  1  0
 13 16  1  0
 13 17  1  0
 14 18  1  0
 15 19  2  0
 18 20  2  0
 19 20  1  0
 19 21  1  0
M  END
>  <minimized2hits_rmsd>  (51) 
0.933126

>  <reference2hits_rmsd>  (51) 
1.455257

>  <reference2minimized_rmsd>  (51) 
1.777913

>  <smiles>  (51) 
Cc1ccncc1NC(=O)C(c1cccc(Cl)c1)C(C)C

>  <error>  (51) 


>  <mode>  (51) 
expansion

>  <∆∆G>  (51) 
-7.151379

>  <∆G_bound>  (51) 
-7.750459

>  <∆G_unbound>  (51) 
-0.59908

>  <comRMSD>  (51) 
0.933126

>  <N_constrained_atoms>  (51) 
16

>  <N_unconstrained_atoms>  (51) 
5

>  <runtime>  (51) 
50.376549

>  <regarded>  (51) 
['x0678']

>  <disregarded>  (51) 
[]

>  <rdock>  (51) 
6.543407

>  <n_inspirations>  (51) 
1

>  <crystal_code>  (51) 
x10327

>  <fraction_overlapping>  (51) 
0.666667

>  <rdock_free>  (51) 
5.626414

>  <rdock_free_top10>  (51) 
2.241426

>  <rdock_pharm>  (51) 
2.302375

>  <rdock_pharm_top10>  (51) 
2.223366

>  <old_RMSD>  (51) 
1.621128

>  <filtered_reference2minimized_rmsd>  (51) 
nan

>  <based_on_x0434>  (51) 
False

>  <overlap_%>  (51) 
66.666667

$$$$
JAN-GHE-83b26c96-10
     RDKit          3D

 21 22  0  0  0  0  0  0  0  0999 V2000
    5.4840    1.4290   21.8380 C   0  0  0  0  0  0  0  0  0  0  0  0
    5.7660    1.0260   20.4990 C   0  0  0  0  0  0  0  0  0  0  0  0
    4.9790    1.4880   19.4470 C   0  0  0  0  0  0  0  0  0  0  0  0
    6.8360    0.1670   20.2320 C   0  0  0  0  0  0  0  0  0  0  0  0
    5.2820    1.0800   18.1560 C   0  0  0  0  0  0  0  0  0  0  0  0
    7.0480   -0.1790   18.9230 C   0  0  0  0  0  0  0  0  0  0  0  0
    7.6470   -0.3200   21.1810 N   0  0  0  0  0  0  0  0  0  0  0  0
    6.2920    0.2630   17.8740 N   0  0  0  0  0  0  0  0  0  0  0  0
    8.6770    0.3810   21.8230 C   0  0  0  0  0  0  0  0  0  0  0  0
    9.2130    1.3860   21.3350 O   0  0  0  0  0  0  0  0  0  0  0  0
    9.1240   -0.0730   23.1830 C   0  0  1  0  0  0  0  0  0  0  0  0
   10.4530   -0.5250   23.3310 C   0  0  0  0  0  0  0  0  0  0  0  0
    8.9330    1.1600   23.9580 N   0  0  0  0  0  0  0  0  0  0  0  0
   11.1360   -0.3090   24.5280 C   0  0  0  0  0  0  0  0  0  0  0  0
   11.0810   -1.1970   22.2870 C   0  0  0  0  0  0  0  0  0  0  0  0
   10.0930    2.0260   23.8450 C   0  0  0  0  0  0  0  0  0  0  0  0
    8.6710    0.8410   25.3650 C   0  0  0  0  0  0  0  0  0  0  0  0
   12.4430   -0.7570   24.6780 C   0  0  0  0  0  0  0  0  0  0  0  0
   12.3780   -1.6430   22.4540 C   0  0  0  0  0  0  0  0  0  0  0  0
   13.0660   -1.4270   23.6380 C   0  0  0  0  0  0  0  0  0  0  0  0
   13.0760   -2.4680   21.1430 Cl  0  0  0  0  0  0  0  0  0  0  0  0
  1  2  1  0
  2  3  2  0
  2  4  1  0
  3  5  1  0
  4  6  2  0
  4  7  1  0
  5  8  2  0
  6  8  1  0
  7  9  1  0
  9 10  2  0
  9 11  1  0
 11 12  1  0
 11 13  1  1
 12 14  2  0
 12 15  1  0
 13 16  1  0
 13 17  1  0
 14 18  1  0
 15 19  2  0
 18 20  2  0
 19 20  1  0
 19 21  1  0
M  END
>  <minimized2hits_rmsd>  (52) 
0.513463

>  <reference2hits_rmsd>  (52) 
0.690368

>  <reference2minimized_rmsd>  (52) 
1.765587

>  <smiles>  (52) 
Cc1ccncc1NC(=O)C(c1cccc(Cl)c1)N(C)C

>  <error>  (52) 


>  <mode>  (52) 
expansion

>  <∆∆G>  (52) 
-8.479063

>  <∆G_bound>  (52) 
-8.665554

>  <∆G_unbound>  (52) 
-0.186491

>  <comRMSD>  (52) 
0.513463

>  <N_constrained_atoms>  (52) 
16

>  <N_unconstrained_atoms>  (52) 
5

>  <runtime>  (52) 
42.620098

>  <regarded>  (52) 
['x0678']

>  <disregarded>  (52) 
[]

>  <rdock>  (52) 
6.696105

>  <n_inspirations>  (52) 
1

>  <crystal_code>  (52) 
x10395

>  <fraction_overlapping>  (52) 
0.761905

>  <rdock_free>  (52) 
3.498431

>  <rdock_free_top10>  (52) 
1.369204

>  <rdock_pharm>  (52) 
1.92171

>  <rdock_pharm_top10>  (52) 
1.255728

>  <old_RMSD>  (52) 
1.611813

>  <filtered_reference2minimized_rmsd>  (52) 
nan

>  <based_on_x0434>  (52) 
False

>  <overlap_%>  (52) 
76.190476

$$$$
JAN-GHE-83b26c96-11
     RDKit          3D

 18 19  0  0  0  0  0  0  0  0999 V2000
   13.7740   -2.6590   24.2730 C   0  0  0  0  0  0  0  0  0  0  0  0
   12.6760   -1.8960   23.8840 C   0  0  0  0  0  0  0  0  0  0  0  0
   12.1700   -1.0120   24.8030 C   0  0  0  0  0  0  0  0  0  0  0  0
   12.0920   -2.0290   22.6360 C   0  0  0  0  0  0  0  0  0  0  0  0
   11.0330   -0.2520   24.5280 C   0  0  0  0  0  0  0  0  0  0  0  0
   10.8710   -1.2050   22.3330 C   0  0  0  0  0  0  0  0  0  0  0  0
   10.3830   -0.3510   23.3180 C   0  0  0  0  0  0  0  0  0  0  0  0
    9.1560    0.5040   23.1990 C   0  0  0  0  0  0  0  0  0  0  0  0
    8.7010    0.6840   21.7830 C   0  0  0  0  0  0  0  0  0  0  0  0
    9.1810    1.6170   21.1540 O   0  0  0  0  0  0  0  0  0  0  0  0
    7.7000   -0.1760   21.2770 N   0  0  0  0  0  0  0  0  0  0  0  0
    6.8910    0.1940   20.2080 C   0  0  0  0  0  0  0  0  0  0  0  0
    7.0990   -0.2800   18.9480 C   0  0  0  0  0  0  0  0  0  0  0  0
    5.8430    1.0850   20.4130 C   0  0  0  0  0  0  0  0  0  0  0  0
    6.2150    0.1780   17.8640 N   0  0  0  0  0  0  0  0  0  0  0  0
    5.0290    1.4880   19.3470 C   0  0  0  0  0  0  0  0  0  0  0  0
    5.5700    1.6070   21.6750 C   0  0  0  0  0  0  0  0  0  0  0  0
    5.2110    1.0370   18.0460 C   0  0  0  0  0  0  0  0  0  0  0  0
  1  2  1  0
  2  3  2  0
  2  4  1  0
  3  5  1  0
  4  6  2  0
  5  7  2  0
  6  7  1  0
  7  8  1  0
  8  9  1  0
  9 10  2  0
  9 11  1  0
 11 12  1  0
 12 13  2  0
 12 14  1  0
 13 15  1  0
 14 16  2  0
 14 17  1  0
 15 18  2  0
 16 18  1  0
M  END
>  <minimized2hits_rmsd>  (53) 
0.691817

>  <reference2hits_rmsd>  (53) 
1.576499

>  <reference2minimized_rmsd>  (53) 
1.617262

>  <smiles>  (53) 
Cc1ccc(CC(=O)Nc2cnccc2C)cc1

>  <error>  (53) 


>  <mode>  (53) 
expansion

>  <∆∆G>  (53) 
-8.295072

>  <∆G_bound>  (53) 
-8.488595

>  <∆G_unbound>  (53) 
-0.193524

>  <comRMSD>  (53) 
0.691817

>  <N_constrained_atoms>  (53) 
16

>  <N_unconstrained_atoms>  (53) 
2

>  <runtime>  (53) 
52.74822

>  <regarded>  (53) 
['x0678']

>  <disregarded>  (53) 
[]

>  <rdock>  (53) 
1.815614

>  <n_inspirations>  (53) 
1

>  <crystal_code>  (53) 
x10248

>  <fraction_overlapping>  (53) 
0.777778

>  <rdock_free>  (53) 
7.426222

>  <rdock_free_top10>  (53) 
3.768492

>  <rdock_pharm>  (53) 
1.755098

>  <rdock_pharm_top10>  (53) 
1.34953

>  <old_RMSD>  (53) 
1.266424

>  <filtered_reference2minimized_rmsd>  (53) 
nan

>  <based_on_x0434>  (53) 
False

>  <overlap_%>  (53) 
77.777778

$$$$
JAN-GHE-83b26c96-12
     RDKit          3D

 18 19  0  0  0  0  0  0  0  0999 V2000
    5.4840    1.5380   21.8050 C   0  0  0  0  0  0  0  0  0  0  0  0
    5.7820    1.0870   20.4860 C   0  0  0  0  0  0  0  0  0  0  0  0
    5.0090    1.5180   19.4130 C   0  0  0  0  0  0  0  0  0  0  0  0
    6.8510    0.2130   20.2590 C   0  0  0  0  0  0  0  0  0  0  0  0
    5.3170    1.0700   18.1400 C   0  0  0  0  0  0  0  0  0  0  0  0
    7.0700   -0.1770   18.9610 C   0  0  0  0  0  0  0  0  0  0  0  0
    7.6500   -0.2410   21.2390 N   0  0  0  0  0  0  0  0  0  0  0  0
    6.3220    0.2370   17.8960 N   0  0  0  0  0  0  0  0  0  0  0  0
    8.6670    0.5080   21.8600 C   0  0  0  0  0  0  0  0  0  0  0  0
    9.1910    1.4920   21.3230 O   0  0  0  0  0  0  0  0  0  0  0  0
    9.1320    0.1250   23.2420 C   0  0  0  0  0  0  0  0  0  0  0  0
   10.4190   -0.3960   23.3730 C   0  0  0  0  0  0  0  0  0  0  0  0
   11.1120   -0.1880   24.5530 C   0  0  0  0  0  0  0  0  0  0  0  0
   11.0140   -1.1220   22.3560 C   0  0  0  0  0  0  0  0  0  0  0  0
   12.3950   -0.6870   24.7270 C   0  0  0  0  0  0  0  0  0  0  0  0
   12.2810   -1.6190   22.5390 C   0  0  0  0  0  0  0  0  0  0  0  0
   12.9950   -1.4140   23.7100 C   0  0  0  0  0  0  0  0  0  0  0  0
   12.9890   -2.5900   21.1310 Br  0  0  0  0  0  0  0  0  0  0  0  0
  1  2  1  0
  2  3  2  0
  2  4  1  0
  3  5  1  0
  4  6  2  0
  4  7  1  0
  5  8  2  0
  6  8  1  0
  7  9  1  0
  9 10  2  0
  9 11  1  0
 11 12  1  0
 12 13  2  0
 12 14  1  0
 13 15  1  0
 14 16  2  0
 15 17  2  0
 16 17  1  0
 16 18  1  0
M  END
>  <minimized2hits_rmsd>  (54) 
0.536096

>  <reference2hits_rmsd>  (54) 
0.857612

>  <reference2minimized_rmsd>  (54) 
0.878121

>  <smiles>  (54) 
Cc1ccncc1NC(=O)Cc1cccc(Br)c1

>  <error>  (54) 


>  <mode>  (54) 
expansion

>  <∆∆G>  (54) 
-6.135578

>  <∆G_bound>  (54) 
-6.586504

>  <∆G_unbound>  (54) 
-0.450926

>  <comRMSD>  (54) 
0.536096

>  <N_constrained_atoms>  (54) 
16

>  <N_unconstrained_atoms>  (54) 
2

>  <runtime>  (54) 
45.94814

>  <regarded>  (54) 
['x0678']

>  <disregarded>  (54) 
[]

>  <rdock>  (54) 
7.200358

>  <n_inspirations>  (54) 
1

>  <crystal_code>  (54) 
x11368

>  <fraction_overlapping>  (54) 
0.833333

>  <rdock_free>  (54) 
2.374308

>  <rdock_free_top10>  (54) 
1.77758

>  <rdock_pharm>  (54) 
2.371415

>  <rdock_pharm_top10>  (54) 
2.116792

>  <old_RMSD>  (54) 
1.739415

>  <filtered_reference2minimized_rmsd>  (54) 
0.878121

>  <based_on_x0434>  (54) 
False

>  <overlap_%>  (54) 
83.333333

$$$$
JAN-GHE-83b26c96-13
     RDKit          3D

 18 19  0  0  0  0  0  0  0  0999 V2000
    4.9770    1.1810   21.7390 C   0  0  0  0  0  0  0  0  0  0  0  0
    5.5070    0.8820   20.4530 C   0  0  0  0  0  0  0  0  0  0  0  0
    4.9350    1.4480   19.3150 C   0  0  0  0  0  0  0  0  0  0  0  0
    6.6030    0.0190   20.3320 C   0  0  0  0  0  0  0  0  0  0  0  0
    5.4690    1.1450   18.0770 C   0  0  0  0  0  0  0  0  0  0  0  0
    7.0570   -0.2200   19.0550 C   0  0  0  0  0  0  0  0  0  0  0  0
    7.2020   -0.5630   21.3960 N   0  0  0  0  0  0  0  0  0  0  0  0
    6.5100    0.3310   17.9300 N   0  0  0  0  0  0  0  0  0  0  0  0
    8.4760   -0.2370   21.8770 C   0  0  0  0  0  0  0  0  0  0  0  0
    9.0360    0.7920   21.5090 O   0  0  0  0  0  0  0  0  0  0  0  0
    9.2220   -1.1240   22.8520 C   0  0  0  0  0  0  0  0  0  0  0  0
   10.5590   -0.7730   22.9050 C   0  0  0  0  0  0  0  0  0  0  0  0
   11.5960   -1.6950   22.9400 C   0  0  0  0  0  0  0  0  0  0  0  0
   10.8190    0.5670   22.9020 C   0  0  0  0  0  0  0  0  0  0  0  0
   12.9020   -1.2270   22.9670 C   0  0  0  0  0  0  0  0  0  0  0  0
   12.0850    1.0440   22.9110 C   0  0  0  0  0  0  0  0  0  0  0  0
   13.1500    0.1530   22.9470 C   0  0  0  0  0  0  0  0  0  0  0  0
   12.1920    3.1320   22.8230 I   0  0  0  0  0  0  0  0  0  0  0  0
  1  2  1  0
  2  3  2  0
  2  4  1  0
  3  5  1  0
  4  6  2  0
  4  7  1  0
  5  8  2  0
  6  8  1  0
  7  9  1  0
  9 10  2  0
  9 11  1  0
 11 12  1  0
 12 13  2  0
 12 14  1  0
 13 15  1  0
 14 16  2  0
 15 17  2  0
 16 17  1  0
 16 18  1  0
M  END
>  <minimized2hits_rmsd>  (55) 
1.016427

>  <reference2hits_rmsd>  (55) 
1.661136

>  <reference2minimized_rmsd>  (55) 
1.777704

>  <smiles>  (55) 
Cc1ccncc1NC(=O)Cc1cccc(I)c1

>  <error>  (55) 


>  <mode>  (55) 
expansion

>  <∆∆G>  (55) 
-5.958096

>  <∆G_bound>  (55) 
-5.537641

>  <∆G_unbound>  (55) 
0.420455

>  <comRMSD>  (55) 
1.016427

>  <N_constrained_atoms>  (55) 
16

>  <N_unconstrained_atoms>  (55) 
2

>  <runtime>  (55) 
61.472519

>  <regarded>  (55) 
['x0678']

>  <disregarded>  (55) 
[]

>  <rdock>  (55) 
7.727314

>  <n_inspirations>  (55) 
1

>  <crystal_code>  (55) 
x10565

>  <fraction_overlapping>  (55) 
0.777778

>  <rdock_free>  (55) 
4.961114

>  <rdock_free_top10>  (55) 
1.743852

>  <rdock_pharm>  (55) 
2.405851

>  <rdock_pharm_top10>  (55) 
1.738619

>  <old_RMSD>  (55) 
2.098389

>  <filtered_reference2minimized_rmsd>  (55) 
nan

>  <based_on_x0434>  (55) 
False

>  <overlap_%>  (55) 
77.777778

$$$$
JAN-GHE-83b26c96-14
     RDKit          3D

 21 22  0  0  0  0  0  0  0  0999 V2000
    4.9650    1.1630   21.7450 C   0  0  0  0  0  0  0  0  0  0  0  0
    5.5010    0.8720   20.4580 C   0  0  0  0  0  0  0  0  0  0  0  0
    4.9400    1.4560   19.3250 C   0  0  0  0  0  0  0  0  0  0  0  0
    6.5880    0.0040   20.3360 C   0  0  0  0  0  0  0  0  0  0  0  0
    5.4830    1.1610   18.0830 C   0  0  0  0  0  0  0  0  0  0  0  0
    7.0530   -0.2260   19.0590 C   0  0  0  0  0  0  0  0  0  0  0  0
    7.1790   -0.5940   21.3920 N   0  0  0  0  0  0  0  0  0  0  0  0
    6.5200    0.3400   17.9370 N   0  0  0  0  0  0  0  0  0  0  0  0
    8.4700   -0.3000   21.8460 C   0  0  0  0  0  0  0  0  0  0  0  0
    9.0280    0.7340   21.4870 O   0  0  0  0  0  0  0  0  0  0  0  0
    9.2290   -1.2230   22.7730 C   0  0  0  0  0  0  0  0  0  0  0  0
   10.5510   -0.8380   22.8460 C   0  0  0  0  0  0  0  0  0  0  0  0
   11.6290   -1.7120   22.7910 C   0  0  0  0  0  0  0  0  0  0  0  0
   10.7450    0.5030   22.9600 C   0  0  0  0  0  0  0  0  0  0  0  0
   12.9110   -1.1850   22.8520 C   0  0  0  0  0  0  0  0  0  0  0  0
   11.9830    1.0480   23.0050 C   0  0  0  0  0  0  0  0  0  0  0  0
   13.0970    0.2020   22.9550 C   0  0  0  0  0  0  0  0  0  0  0  0
   11.9500    2.4530   23.0750 C   0  0  0  0  0  0  0  0  0  0  0  0
   13.1250    3.1100   23.0010 F   0  0  0  0  0  0  0  0  0  0  0  0
   11.2480    2.8770   24.1310 F   0  0  0  0  0  0  0  0  0  0  0  0
   11.2130    3.0370   22.1090 F   0  0  0  0  0  0  0  0  0  0  0  0
  1  2  1  0
  2  3  2  0
  2  4  1  0
  3  5  1  0
  4  6  2  0
  4  7  1  0
  5  8  2  0
  6  8  1  0
  7  9  1  0
  9 10  2  0
  9 11  1  0
 11 12  1  0
 12 13  2  0
 12 14  1  0
 13 15  1  0
 14 16  2  0
 15 17  2  0
 16 17  1  0
 16 18  1  0
 18 19  1  0
 18 20  1  0
 18 21  1  0
M  END
>  <minimized2hits_rmsd>  (56) 
1.017574

>  <reference2hits_rmsd>  (56) 
1.593144

>  <reference2minimized_rmsd>  (56) 
2.580524

>  <smiles>  (56) 
Cc1ccncc1NC(=O)Cc1cccc(C(F)(F)F)c1

>  <error>  (56) 


>  <mode>  (56) 
expansion

>  <∆∆G>  (56) 
-3.311889

>  <∆G_bound>  (56) 
-3.40841

>  <∆G_unbound>  (56) 
-0.096521

>  <comRMSD>  (56) 
1.017574

>  <N_constrained_atoms>  (56) 
16

>  <N_unconstrained_atoms>  (56) 
5

>  <runtime>  (56) 
57.976791

>  <regarded>  (56) 
['x0678']

>  <disregarded>  (56) 
[]

>  <rdock>  (56) 
6.002637

>  <n_inspirations>  (56) 
1

>  <crystal_code>  (56) 
x10247

>  <fraction_overlapping>  (56) 
0.761905

>  <rdock_free>  (56) 
7.675775

>  <rdock_free_top10>  (56) 
1.90542

>  <rdock_pharm>  (56) 
2.481964

>  <rdock_pharm_top10>  (56) 
1.913671

>  <old_RMSD>  (56) 
1.478217

>  <filtered_reference2minimized_rmsd>  (56) 
nan

>  <based_on_x0434>  (56) 
False

>  <overlap_%>  (56) 
76.190476

$$$$
JAN-GHE-83b26c96-15
     RDKit          3D

 19 20  0  0  0  0  0  0  0  0999 V2000
    5.5620    1.5540   21.8520 C   0  0  0  0  0  0  0  0  0  0  0  0
    5.8570    1.0720   20.5450 C   0  0  0  0  0  0  0  0  0  0  0  0
    5.0960    1.4970   19.4580 C   0  0  0  0  0  0  0  0  0  0  0  0
    6.9170    0.1720   20.3520 C   0  0  0  0  0  0  0  0  0  0  0  0
    5.4000    1.0180   18.1960 C   0  0  0  0  0  0  0  0  0  0  0  0
    7.1300   -0.2480   19.0560 C   0  0  0  0  0  0  0  0  0  0  0  0
    7.7080   -0.2770   21.3650 N   0  0  0  0  0  0  0  0  0  0  0  0
    6.3900    0.1600   17.9760 N   0  0  0  0  0  0  0  0  0  0  0  0
    7.8360   -1.6410   21.7150 C   0  0  0  0  0  0  0  0  0  0  0  0
    8.6980    0.6560   21.8570 C   0  0  0  0  0  0  0  0  0  0  0  0
    9.1360    1.6510   21.2750 O   0  0  0  0  0  0  0  0  0  0  0  0
    9.0990    0.2430   23.1450 C   0  0  0  0  0  0  0  0  0  0  0  0
   10.3670   -0.3160   23.2830 C   0  0  0  0  0  0  0  0  0  0  0  0
   11.1020   -0.1580   24.4410 C   0  0  0  0  0  0  0  0  0  0  0  0
   11.0100   -1.1320   22.1740 C   0  0  0  0  0  0  0  0  0  0  0  0
   12.3790   -0.6960   24.6280 C   0  0  0  0  0  0  0  0  0  0  0  0
   12.3880   -1.6990   22.4100 C   0  0  0  0  0  0  0  0  0  0  0  0
   13.0050   -1.4460   23.6360 C   0  0  0  0  0  0  0  0  0  0  0  0
   13.0860   -2.6070   21.1630 Cl  0  0  0  0  0  0  0  0  0  0  0  0
  1  2  1  0
  2  3  2  0
  2  4  1  0
  3  5  1  0
  4  6  2  0
  4  7  1  0
  5  8  2  0
  6  8  1  0
  7  9  1  0
  7 10  1  0
 10 11  2  0
 10 12  1  0
 12 13  1  0
 13 14  2  0
 13 15  1  0
 14 16  1  0
 15 17  2  0
 16 18  2  0
 17 18  1  0
 17 19  1  0
M  END
>  <minimized2hits_rmsd>  (57) 
0.549444

>  <reference2hits_rmsd>  (57) 
0.830569

>  <reference2minimized_rmsd>  (57) 
0.966813

>  <smiles>  (57) 
Cc1ccncc1N(C)C(=O)Cc1cccc(Cl)c1

>  <error>  (57) 


>  <mode>  (57) 
expansion

>  <∆∆G>  (57) 
-8.045106

>  <∆G_bound>  (57) 
-7.861005

>  <∆G_unbound>  (57) 
0.184101

>  <comRMSD>  (57) 
0.549444

>  <N_constrained_atoms>  (57) 
16

>  <N_unconstrained_atoms>  (57) 
3

>  <runtime>  (57) 
46.591068

>  <regarded>  (57) 
['x0678']

>  <disregarded>  (57) 
[]

>  <rdock>  (57) 
2.311131

>  <n_inspirations>  (57) 
1

>  <crystal_code>  (57) 
x11041

>  <fraction_overlapping>  (57) 
0.842105

>  <rdock_free>  (57) 
6.180554

>  <rdock_free_top10>  (57) 
6.028606

>  <rdock_pharm>  (57) 
2.45689

>  <rdock_pharm_top10>  (57) 
0.89733

>  <old_RMSD>  (57) 
1.542266

>  <filtered_reference2minimized_rmsd>  (57) 
0.966813

>  <based_on_x0434>  (57) 
False

>  <overlap_%>  (57) 
84.210526

$$$$
JAN-GHE-83b26c96-19
     RDKit          3D

 17 18  0  0  0  0  0  0  0  0999 V2000
    9.2490    1.6240   21.4060 O   0  0  0  0  0  0  0  0  0  0  0  0
    8.8280    0.6130   21.9690 C   0  0  0  0  0  0  0  0  0  0  0  0
    7.7260   -0.1060   21.5060 N   0  0  0  0  0  0  0  0  0  0  0  0
    9.3840    0.0450   23.1380 N   0  0  0  0  0  0  0  0  0  0  0  0
    6.8870    0.2640   20.4220 C   0  0  0  0  0  0  0  0  0  0  0  0
   10.6100   -0.6660   23.2530 C   0  0  0  0  0  0  0  0  0  0  0  0
    5.8280    1.1570   20.4990 C   0  0  0  0  0  0  0  0  0  0  0  0
    7.1220   -0.2940   19.1760 C   0  0  0  0  0  0  0  0  0  0  0  0
   11.1510   -1.1690   21.9710 C   0  0  0  0  0  0  0  0  0  0  0  0
   11.3560   -0.9550   24.4100 C   0  0  0  0  0  0  0  0  0  0  0  0
    5.0710    1.4560   19.3630 C   0  0  0  0  0  0  0  0  0  0  0  0
    6.4080   -0.0230   18.0650 N   0  0  0  0  0  0  0  0  0  0  0  0
   12.3430   -1.8780   21.8990 C   0  0  0  0  0  0  0  0  0  0  0  0
   12.5550   -1.6980   24.2620 C   0  0  0  0  0  0  0  0  0  0  0  0
    5.3960    0.8480   18.1770 C   0  0  0  0  0  0  0  0  0  0  0  0
   13.0410   -2.1390   23.0480 C   0  0  0  0  0  0  0  0  0  0  0  0
   13.5550   -2.1740   25.5460 Cl  0  0  0  0  0  0  0  0  0  0  0  0
  1  2  2  0
  2  3  1  0
  2  4  1  0
  3  5  1  0
  4  6  1  0
  5  7  2  0
  5  8  1  0
  6  9  2  0
  6 10  1  0
  7 11  1  0
  8 12  2  0
  9 13  1  0
 10 14  2  0
 11 15  2  0
 12 15  1  0
 13 16  2  0
 14 16  1  0
 14 17  1  0
M  END
>  <minimized2hits_rmsd>  (58) 
0.754653

>  <reference2hits_rmsd>  (58) 
1.427178

>  <reference2minimized_rmsd>  (58) 
1.80811

>  <smiles>  (58) 
O=C(Nc1cccnc1)Nc1cccc(Cl)c1

>  <error>  (58) 


>  <mode>  (58) 
expansion

>  <∆∆G>  (58) 
-6.434082

>  <∆G_bound>  (58) 
-6.03069

>  <∆G_unbound>  (58) 
0.403392

>  <comRMSD>  (58) 
0.754653

>  <N_constrained_atoms>  (58) 
16

>  <N_unconstrained_atoms>  (58) 
1

>  <runtime>  (58) 
65.625441

>  <regarded>  (58) 
['x0678']

>  <disregarded>  (58) 
[]

>  <rdock>  (58) 
7.269615

>  <n_inspirations>  (58) 
1

>  <crystal_code>  (58) 
x10996

>  <fraction_overlapping>  (58) 
0.941176

>  <rdock_free>  (58) 
6.07104

>  <rdock_free_top10>  (58) 
5.94666

>  <rdock_pharm>  (58) 
1.6529

>  <rdock_pharm_top10>  (58) 
1.580486

>  <old_RMSD>  (58) 
0.909663

>  <filtered_reference2minimized_rmsd>  (58) 
1.80811

>  <based_on_x0434>  (58) 
False

>  <overlap_%>  (58) 
94.117647

$$$$
JAN-GHE-83b26c96-20
     RDKit          3D

 20 22  0  0  0  0  0  0  0  0999 V2000
    4.8920    1.2720   21.6790 C   0  0  0  0  0  0  0  0  0  0  0  0
    5.4400    0.9520   20.4050 C   0  0  0  0  0  0  0  0  0  0  0  0
    4.8850    1.4870   19.2470 C   0  0  0  0  0  0  0  0  0  0  0  0
    6.5390    0.0970   20.3170 C   0  0  0  0  0  0  0  0  0  0  0  0
    5.4470    1.1550   18.0270 C   0  0  0  0  0  0  0  0  0  0  0  0
    7.0230   -0.1730   19.0600 C   0  0  0  0  0  0  0  0  0  0  0  0
    7.1160   -0.4500   21.3960 N   0  0  0  0  0  0  0  0  0  0  0  0
    6.4950    0.3450   17.9150 N   0  0  0  0  0  0  0  0  0  0  0  0
    8.4060   -0.1640   21.8460 C   0  0  0  0  0  0  0  0  0  0  0  0
    8.9940    0.8650   21.5150 O   0  0  0  0  0  0  0  0  0  0  0  0
    9.1290   -1.1210   22.7470 C   0  0  0  0  0  0  0  0  0  0  0  0
   10.4870   -0.9520   22.8660 C   0  0  0  0  0  0  0  0  0  0  0  0
    8.6350   -2.4680   22.5850 C   0  0  0  0  0  0  0  0  0  0  0  0
    8.2840   -1.9940   23.7590 C   0  0  0  0  0  0  0  0  0  0  0  0
   11.4020   -1.9980   22.9030 C   0  0  0  0  0  0  0  0  0  0  0  0
   10.9040    0.3440   22.9290 C   0  0  0  0  0  0  0  0  0  0  0  0
   12.7490   -1.7090   23.0020 C   0  0  0  0  0  0  0  0  0  0  0  0
   12.2150    0.6340   23.0120 C   0  0  0  0  0  0  0  0  0  0  0  0
   13.1370   -0.3810   23.0520 C   0  0  0  0  0  0  0  0  0  0  0  0
   12.5810    2.3000   23.0280 Cl  0  0  0  0  0  0  0  0  0  0  0  0
  1  2  1  0
  2  3  2  0
  2  4  1  0
  3  5  1  0
  4  6  2  0
  4  7  1  0
  5  8  2  0
  6  8  1  0
  7  9  1  0
  9 10  2  0
 11  9  1  0
 11 12  1  0
 11 13  1  0
 11 14  1  0
 13 14  1  0
 12 15  2  0
 12 16  1  0
 15 17  1  0
 16 18  2  0
 17 19  2  0
 18 19  1  0
 18 20  1  0
M  END
>  <minimized2hits_rmsd>  (59) 
0.947067

>  <reference2hits_rmsd>  (59) 
1.392103

>  <reference2minimized_rmsd>  (59) 
1.502385

>  <smiles>  (59) 
Cc1ccncc1NC(=O)C1(c2cccc(Cl)c2)CC1

>  <error>  (59) 


>  <mode>  (59) 
expansion

>  <∆∆G>  (59) 
-6.447866

>  <∆G_bound>  (59) 
-6.261841

>  <∆G_unbound>  (59) 
0.186025

>  <comRMSD>  (59) 
0.947067

>  <N_constrained_atoms>  (59) 
16

>  <N_unconstrained_atoms>  (59) 
4

>  <runtime>  (59) 
71.715774

>  <regarded>  (59) 
['x0678']

>  <disregarded>  (59) 
[]

>  <rdock>  (59) 
8.117586

>  <n_inspirations>  (59) 
1

>  <crystal_code>  (59) 
x10392

>  <fraction_overlapping>  (59) 
0.8

>  <rdock_free>  (59) 
1.950098

>  <rdock_free_top10>  (59) 
1.603946

>  <rdock_pharm>  (59) 
2.206159

>  <rdock_pharm_top10>  (59) 
1.35507

>  <old_RMSD>  (59) 
1.448665

>  <filtered_reference2minimized_rmsd>  (59) 
nan

>  <based_on_x0434>  (59) 
False

>  <overlap_%>  (59) 
80.0

$$$$
JAN-GHE-83b26c96-21
     RDKit          3D

 18 19  0  0  0  0  0  0  0  0999 V2000
    5.4260    1.2870   21.8720 C   0  0  0  0  0  0  0  0  0  0  0  0
    5.7590    0.9050   20.5370 C   0  0  0  0  0  0  0  0  0  0  0  0
    4.9840    1.3650   19.4730 C   0  0  0  0  0  0  0  0  0  0  0  0
    6.8610    0.0720   20.2900 C   0  0  0  0  0  0  0  0  0  0  0  0
    5.3230    0.9860   18.1860 C   0  0  0  0  0  0  0  0  0  0  0  0
    7.1030   -0.2480   18.9750 C   0  0  0  0  0  0  0  0  0  0  0  0
    7.6640   -0.4040   21.2690 N   0  0  0  0  0  0  0  0  0  0  0  0
    6.3550    0.1960   17.9200 N   0  0  0  0  0  0  0  0  0  0  0  0
    8.5310    0.7460   22.1780 S   0  0  0  0  0  0  0  0  0  0  0  0
    9.0500    1.7250   21.2400 O   0  0  0  0  0  0  0  0  0  0  0  0
    7.6660    1.1580   23.2600 O   0  0  0  0  0  0  0  0  0  0  0  0
    9.9370   -0.0400   22.9320 C   0  0  0  0  0  0  0  0  0  0  0  0
   10.1480    0.0940   24.3880 C   0  0  0  0  0  0  0  0  0  0  0  0
   10.8800   -0.7760   22.2410 C   0  0  0  0  0  0  0  0  0  0  0  0
   11.2460   -0.4900   25.0020 C   0  0  0  0  0  0  0  0  0  0  0  0
   11.9780   -1.3290   22.9160 C   0  0  0  0  0  0  0  0  0  0  0  0
   12.1760   -1.1960   24.2840 C   0  0  0  0  0  0  0  0  0  0  0  0
   13.0930   -2.1980   21.9990 Cl  0  0  0  0  0  0  0  0  0  0  0  0
  1  2  1  0
  2  3  2  0
  2  4  1  0
  3  5  1  0
  4  6  2  0
  4  7  1  0
  5  8  2  0
  6  8  1  0
  9  7  1  0
  9 10  2  0
  9 11  2  0
  9 12  1  0
 12 13  2  0
 12 14  1  0
 13 15  1  0
 14 16  2  0
 15 17  2  0
 16 17  1  0
 16 18  1  0
M  END
>  <minimized2hits_rmsd>  (60) 
0.85899

>  <reference2hits_rmsd>  (60) 
5.898737

>  <reference2minimized_rmsd>  (60) 
5.825001

>  <smiles>  (60) 
Cc1ccncc1NS(=O)(=O)c1cccc(Cl)c1

>  <error>  (60) 


>  <mode>  (60) 
expansion

>  <∆∆G>  (60) 
-5.058725

>  <∆G_bound>  (60) 
-5.596917

>  <∆G_unbound>  (60) 
-0.538192

>  <comRMSD>  (60) 
0.85899

>  <N_constrained_atoms>  (60) 
16

>  <N_unconstrained_atoms>  (60) 
2

>  <runtime>  (60) 
56.457774

>  <regarded>  (60) 
['x0678']

>  <disregarded>  (60) 
[]

>  <rdock>  (60) 
7.058275

>  <n_inspirations>  (60) 
1

>  <crystal_code>  (60) 
x10606

>  <fraction_overlapping>  (60) 
0.444444

>  <rdock_free>  (60) 
5.256999

>  <rdock_free_top10>  (60) 
3.962449

>  <rdock_pharm>  (60) 
5.843128

>  <rdock_pharm_top10>  (60) 
5.583989

>  <old_RMSD>  (60) 
5.964984

>  <filtered_reference2minimized_rmsd>  (60) 
nan

>  <based_on_x0434>  (60) 
False

>  <overlap_%>  (60) 
44.444444

$$$$
JAN-GHE-83b26c96-22
     RDKit          3D

 20 21  0  0  0  0  0  0  0  0999 V2000
    5.6100    1.5890   21.8290 C   0  0  0  0  0  0  0  0  0  0  0  0
    5.8570    1.1020   20.5090 C   0  0  0  0  0  0  0  0  0  0  0  0
    5.0540    1.5100   19.4440 C   0  0  0  0  0  0  0  0  0  0  0  0
    6.9100    0.2130   20.2790 C   0  0  0  0  0  0  0  0  0  0  0  0
    5.3230    1.0180   18.1770 C   0  0  0  0  0  0  0  0  0  0  0  0
    7.0890   -0.2170   18.9860 C   0  0  0  0  0  0  0  0  0  0  0  0
    7.7270   -0.2180   21.2520 N   0  0  0  0  0  0  0  0  0  0  0  0
    6.3160    0.1700   17.9320 N   0  0  0  0  0  0  0  0  0  0  0  0
    8.7030    0.5550   21.9060 C   0  0  0  0  0  0  0  0  0  0  0  0
    9.2250    1.5420   21.3690 O   0  0  0  0  0  0  0  0  0  0  0  0
    9.1200    0.2180   23.3180 C   0  0  0  0  0  0  0  0  0  0  0  0
    8.2640   -0.6080   24.0580 C   0  0  0  0  0  0  0  0  0  0  0  0
    9.3090    1.5630   24.0830 C   0  0  0  0  0  0  0  0  0  0  0  0
   10.5270   -0.4200   23.3610 C   0  0  0  0  0  0  0  0  0  0  0  0
   11.2500   -0.2620   24.5370 C   0  0  0  0  0  0  0  0  0  0  0  0
   11.0900   -1.1420   22.3000 C   0  0  0  0  0  0  0  0  0  0  0  0
   12.5230   -0.7760   24.7460 C   0  0  0  0  0  0  0  0  0  0  0  0
   12.3510   -1.6860   22.4390 C   0  0  0  0  0  0  0  0  0  0  0  0
   13.1230   -1.4990   23.7300 C   0  0  0  0  0  0  0  0  0  0  0  0
   13.0000   -2.5680   21.1390 Cl  0  0  0  0  0  0  0  0  0  0  0  0
  1  2  1  0
  2  3  2  0
  2  4  1  0
  3  5  1  0
  4  6  2  0
  4  7  1  0
  5  8  2  0
  6  8  1  0
  7  9  1  0
  9 10  2  0
  9 11  1  0
 11 12  1  0
 11 13  1  0
 11 14  1  0
 14 15  2  0
 14 16  1  0
 15 17  1  0
 16 18  2  0
 17 19  2  0
 18 19  1  0
 18 20  1  0
M  END
>  <minimized2hits_rmsd>  (61) 
0.534436

>  <reference2hits_rmsd>  (61) 
0.715763

>  <reference2minimized_rmsd>  (61) 
1.321626

>  <smiles>  (61) 
Cc1ccncc1NC(=O)C(C)(C)c1cccc(Cl)c1

>  <error>  (61) 


>  <mode>  (61) 
expansion

>  <∆∆G>  (61) 
-9.144878

>  <∆G_bound>  (61) 
-9.569057

>  <∆G_unbound>  (61) 
-0.42418

>  <comRMSD>  (61) 
0.534436

>  <N_constrained_atoms>  (61) 
16

>  <N_unconstrained_atoms>  (61) 
4

>  <runtime>  (61) 
49.474539

>  <regarded>  (61) 
['x0678']

>  <disregarded>  (61) 
[]

>  <rdock>  (61) 
4.56666

>  <n_inspirations>  (61) 
1

>  <crystal_code>  (61) 
x10422

>  <fraction_overlapping>  (61) 
0.8

>  <rdock_free>  (61) 
2.042132

>  <rdock_free_top10>  (61) 
2.042132

>  <rdock_pharm>  (61) 
2.053527

>  <rdock_pharm_top10>  (61) 
1.782805

>  <old_RMSD>  (61) 
1.733832

>  <filtered_reference2minimized_rmsd>  (61) 
nan

>  <based_on_x0434>  (61) 
False

>  <overlap_%>  (61) 
80.0

$$$$
JAN-GHE-83b26c96-23
     RDKit          3D

 20 21  0  0  0  0  0  0  0  0999 V2000
    4.8970    1.2650   21.6820 C   0  0  0  0  0  0  0  0  0  0  0  0
    5.4510    0.9400   20.4070 C   0  0  0  0  0  0  0  0  0  0  0  0
    4.8970    1.4820   19.2560 C   0  0  0  0  0  0  0  0  0  0  0  0
    6.5490    0.0780   20.3150 C   0  0  0  0  0  0  0  0  0  0  0  0
    5.4510    1.1560   18.0330 C   0  0  0  0  0  0  0  0  0  0  0  0
    7.0250   -0.1870   19.0540 C   0  0  0  0  0  0  0  0  0  0  0  0
    7.1260   -0.4740   21.3910 N   0  0  0  0  0  0  0  0  0  0  0  0
    6.4950    0.3420   17.9110 N   0  0  0  0  0  0  0  0  0  0  0  0
    8.4240   -0.2130   21.8360 C   0  0  0  0  0  0  0  0  0  0  0  0
    9.0290    0.8070   21.4990 O   0  0  0  0  0  0  0  0  0  0  0  0
    9.1280   -1.1900   22.7380 C   0  0  0  0  0  0  0  0  0  0  0  0
    8.9370   -2.4870   22.4670 F   0  0  0  0  0  0  0  0  0  0  0  0
    8.5220   -1.0940   23.9650 F   0  0  0  0  0  0  0  0  0  0  0  0
   10.4800   -0.9560   22.8480 C   0  0  0  0  0  0  0  0  0  0  0  0
   11.4170   -1.9820   22.8670 C   0  0  0  0  0  0  0  0  0  0  0  0
   10.8800    0.3520   22.9200 C   0  0  0  0  0  0  0  0  0  0  0  0
   12.7610   -1.6760   22.9570 C   0  0  0  0  0  0  0  0  0  0  0  0
   12.1950    0.6610   22.9930 C   0  0  0  0  0  0  0  0  0  0  0  0
   13.1340   -0.3460   23.0150 C   0  0  0  0  0  0  0  0  0  0  0  0
   12.5620    2.3250   23.0230 Cl  0  0  0  0  0  0  0  0  0  0  0  0
  1  2  1  0
  2  3  2  0
  2  4  1  0
  3  5  1  0
  4  6  2  0
  4  7  1  0
  5  8  2  0
  6  8  1  0
  7  9  1  0
  9 10  2  0
  9 11  1  0
 11 12  1  0
 11 13  1  0
 11 14  1  0
 14 15  2  0
 14 16  1  0
 15 17  1  0
 16 18  2  0
 17 19  2  0
 18 19  1  0
 18 20  1  0
M  END
>  <minimized2hits_rmsd>  (62) 
0.957237

>  <reference2hits_rmsd>  (62) 
1.397664

>  <reference2minimized_rmsd>  (62) 
1.479219

>  <smiles>  (62) 
Cc1ccncc1NC(=O)C(F)(F)c1cccc(Cl)c1

>  <error>  (62) 


>  <mode>  (62) 
expansion

>  <∆∆G>  (62) 
-5.589165

>  <∆G_bound>  (62) 
-4.901615

>  <∆G_unbound>  (62) 
0.68755

>  <comRMSD>  (62) 
0.957237

>  <N_constrained_atoms>  (62) 
16

>  <N_unconstrained_atoms>  (62) 
4

>  <runtime>  (62) 
73.986792

>  <regarded>  (62) 
['x0678']

>  <disregarded>  (62) 
[]

>  <rdock>  (62) 
7.351158

>  <n_inspirations>  (62) 
1

>  <crystal_code>  (62) 
x10396

>  <fraction_overlapping>  (62) 
0.8

>  <rdock_free>  (62) 
2.320694

>  <rdock_free_top10>  (62) 
1.875861

>  <rdock_pharm>  (62) 
2.328584

>  <rdock_pharm_top10>  (62) 
1.872573

>  <old_RMSD>  (62) 
1.482681

>  <filtered_reference2minimized_rmsd>  (62) 
nan

>  <based_on_x0434>  (62) 
False

>  <overlap_%>  (62) 
80.0

$$$$
MAT-POS-7dfc56d9-1
     RDKit          3D

 14 14  0  0  0  0  0  0  0  0999 V2000
   13.3350   -2.3160   24.4430 C   0  0  0  0  0  0  0  0  0  0  0  0
   12.8080   -0.9860   24.5310 O   0  0  0  0  0  0  0  0  0  0  0  0
   12.8900   -0.2440   23.3850 C   0  0  0  0  0  0  0  0  0  0  0  0
   13.5390   -0.5380   22.3960 O   0  0  0  0  0  0  0  0  0  0  0  0
   12.1360    0.9180   23.4880 C   0  0  0  0  0  0  0  0  0  0  0  0
   10.8440    0.9900   24.0130 C   0  0  0  0  0  0  0  0  0  0  0  0
   12.8030    2.2100   22.9820 C   0  0  0  0  0  0  0  0  0  0  0  0
   10.1600    2.1990   24.0940 C   0  0  0  0  0  0  0  0  0  0  0  0
   12.1350    3.4220   23.0550 C   0  0  0  0  0  0  0  0  0  0  0  0
   10.7580    3.4990   23.6310 C   0  0  0  0  0  0  0  0  0  0  0  0
   10.0080    5.0560   23.7190 S   0  0  0  0  0  0  0  0  0  0  0  0
    8.7830    4.9350   22.5770 N   0  0  0  0  0  0  0  0  0  0  0  0
    9.2830    5.1660   24.9800 O   0  0  0  0  0  0  0  0  0  0  0  0
   10.9760    6.0600   23.3320 O   0  0  0  0  0  0  0  0  0  0  0  0
  1  2  1  0
  2  3  1  0
  3  4  2  0
  3  5  1  0
  5  6  2  0
  5  7  1  0
  6  8  1  0
  7  9  2  0
  8 10  2  0
  9 10  1  0
 10 11  1  0
 11 12  1  0
 11 13  2  0
 11 14  2  0
M  END
>  <minimized2hits_rmsd>  (63) 
0.431287

>  <reference2hits_rmsd>  (63) 
0.862312

>  <reference2minimized_rmsd>  (63) 
0.995392

>  <smiles>  (63) 
COC(=O)c1ccc(S(N)(=O)=O)cc1

>  <error>  (63) 


>  <mode>  (63) 
expansion

>  <∆∆G>  (63) 
-6.052377

>  <∆G_bound>  (63) 
-5.929135

>  <∆G_unbound>  (63) 
0.123242

>  <comRMSD>  (63) 
0.431287

>  <N_constrained_atoms>  (63) 
14

>  <N_unconstrained_atoms>  (63) 
0

>  <runtime>  (63) 
36.799158

>  <regarded>  (63) 
['x0161']

>  <disregarded>  (63) 
[]

>  <rdock>  (63) 
5.791552

>  <n_inspirations>  (63) 
1

>  <crystal_code>  (63) 
x0161

>  <fraction_overlapping>  (63) 
1.0

>  <rdock_free>  (63) 
6.227527

>  <rdock_free_top10>  (63) 
6.14529

>  <rdock_pharm>  (63) 
6.022118

>  <rdock_pharm_top10>  (63) 
1.975721

>  <old_RMSD>  (63) 
0.525808

>  <filtered_reference2minimized_rmsd>  (63) 
0.995392

>  <based_on_x0434>  (63) 
False

>  <overlap_%>  (63) 
100.0

$$$$
TRY-UNI-2eddb1ff-1
     RDKit          3D

 19 20  0  0  0  0  0  0  0  0999 V2000
    5.4380    1.4950   21.8020 C   0  0  0  0  0  0  0  0  0  0  0  0
    5.7550    1.0540   20.4850 C   0  0  0  0  0  0  0  0  0  0  0  0
    4.9780    1.4690   19.4060 C   0  0  0  0  0  0  0  0  0  0  0  0
    6.8460    0.2040   20.2680 C   0  0  0  0  0  0  0  0  0  0  0  0
    5.3070    1.0290   18.1370 C   0  0  0  0  0  0  0  0  0  0  0  0
    7.0800   -0.1810   18.9730 C   0  0  0  0  0  0  0  0  0  0  0  0
    7.6480   -0.2320   21.2590 N   0  0  0  0  0  0  0  0  0  0  0  0
    6.3310    0.2180   17.9020 N   0  0  0  0  0  0  0  0  0  0  0  0
    8.7120    0.4870   21.8410 C   0  0  0  0  0  0  0  0  0  0  0  0
    9.2140    1.4790   21.3020 O   0  0  0  0  0  0  0  0  0  0  0  0
    9.2540    0.0650   23.1830 C   0  0  0  0  0  0  0  0  0  0  0  0
   10.5450   -0.4870   23.2560 C   0  0  0  0  0  0  0  0  0  0  0  0
   11.3150   -0.2240   24.3720 C   0  0  0  0  0  0  0  0  0  0  0  0
   11.0800   -1.3010   22.2530 C   0  0  0  0  0  0  0  0  0  0  0  0
   12.5690   -0.7060   24.5560 N   0  0  0  0  0  0  0  0  0  0  0  0
   12.3570   -1.8110   22.4200 C   0  0  0  0  0  0  0  0  0  0  0  0
   13.0610   -1.4890   23.5790 C   0  0  0  0  0  0  0  0  0  0  0  0
   12.9130   -2.6300   21.4570 C   0  0  0  0  0  0  0  0  0  0  0  0
   13.3460   -3.3550   20.6780 N   0  0  0  0  0  0  0  0  0  0  0  0
  1  2  1  0
  2  3  2  0
  2  4  1  0
  3  5  1  0
  4  6  2  0
  4  7  1  0
  5  8  2  0
  6  8  1  0
  7  9  1  0
  9 10  2  0
  9 11  1  0
 11 12  1  0
 12 13  2  0
 12 14  1  0
 13 15  1  0
 14 16  2  0
 15 17  2  0
 16 17  1  0
 16 18  1  0
 18 19  3  0
M  END
>  <minimized2hits_rmsd>  (64) 
0.503944

>  <reference2hits_rmsd>  (64) 
0.571372

>  <reference2minimized_rmsd>  (64) 
0.970394

>  <smiles>  (64) 
Cc1ccncc1NC(=O)Cc1cncc(C#N)c1

>  <error>  (64) 


>  <mode>  (64) 
expansion

>  <∆∆G>  (64) 
-5.936057

>  <∆G_bound>  (64) 
-5.501894

>  <∆G_unbound>  (64) 
0.434164

>  <comRMSD>  (64) 
0.503944

>  <N_constrained_atoms>  (64) 
16

>  <N_unconstrained_atoms>  (64) 
3

>  <runtime>  (64) 
39.402252

>  <regarded>  (64) 
['x0678']

>  <disregarded>  (64) 
['x0387']

>  <rdock>  (64) 
4.132738

>  <n_inspirations>  (64) 
1

>  <crystal_code>  (64) 
x10314

>  <fraction_overlapping>  (64) 
0.842105

>  <rdock_free>  (64) 
7.321651

>  <rdock_free_top10>  (64) 
1.786269

>  <rdock_pharm>  (64) 
nan

>  <rdock_pharm_top10>  (64) 
nan

>  <old_RMSD>  (64) 
2.08961

>  <filtered_reference2minimized_rmsd>  (64) 
0.970394

>  <based_on_x0434>  (64) 
False

>  <overlap_%>  (64) 
84.210526

$$$$
TRY-UNI-2eddb1ff-2
     RDKit          3D

 18 19  0  0  0  0  0  0  0  0999 V2000
    7.7230   -4.6960   25.6580 C   0  0  0  0  0  0  0  0  0  0  0  0
    8.8780   -4.0400   25.1710 C   0  0  0  0  0  0  0  0  0  0  0  0
   10.0120   -4.1830   25.9560 C   0  0  0  0  0  0  0  0  0  0  0  0
    8.9550   -3.2540   23.9470 C   0  0  0  0  0  0  0  0  0  0  0  0
   11.1800   -3.5680   25.5650 C   0  0  0  0  0  0  0  0  0  0  0  0
   10.1820   -2.6980   23.7000 C   0  0  0  0  0  0  0  0  0  0  0  0
    8.0100   -2.9540   22.9670 N   0  0  0  0  0  0  0  0  0  0  0  0
   11.2900   -2.8290   24.4720 N   0  0  0  0  0  0  0  0  0  0  0  0
    7.9650   -1.6970   22.3760 C   0  0  0  0  0  0  0  0  0  0  0  0
    7.3960   -1.5120   21.3310 O   0  0  0  0  0  0  0  0  0  0  0  0
    8.6170   -0.5080   23.0030 C   0  0  0  0  0  0  0  0  0  0  0  0
   10.0090   -0.5480   23.0550 C   0  0  0  0  0  0  0  0  0  0  0  0
   10.6670    0.1490   24.0520 C   0  0  0  0  0  0  0  0  0  0  0  0
   10.7890   -1.2650   22.1420 C   0  0  0  0  0  0  0  0  0  0  0  0
   12.0110    0.1910   24.1990 N   0  0  0  0  0  0  0  0  0  0  0  0
   12.1680   -1.2330   22.2850 C   0  0  0  0  0  0  0  0  0  0  0  0
   12.7350   -0.5040   23.3080 C   0  0  0  0  0  0  0  0  0  0  0  0
   13.1550   -2.0950   21.1960 Cl  0  0  0  0  0  0  0  0  0  0  0  0
  1  2  1  0
  2  3  2  0
  2  4  1  0
  3  5  1  0
  4  6  2  0
  4  7  1  0
  5  8  2  0
  6  8  1  0
  7  9  1  0
  9 10  2  0
  9 11  1  0
 11 12  1  0
 12 13  2  0
 12 14  1  0
 13 15  1  0
 14 16  2  0
 15 17  2  0
 16 17  1  0
 16 18  1  0
M  END
>  <minimized2hits_rmsd>  (65) 
1.48392

>  <reference2hits_rmsd>  (65) 
5.154835

>  <reference2minimized_rmsd>  (65) 
5.479727

>  <smiles>  (65) 
Cc1ccncc1NC(=O)Cc1cncc(Cl)c1

>  <error>  (65) 


>  <mode>  (65) 
expansion

>  <∆∆G>  (65) 
-1.719313

>  <∆G_bound>  (65) 
-1.346773

>  <∆G_unbound>  (65) 
0.37254

>  <comRMSD>  (65) 
1.48392

>  <N_constrained_atoms>  (65) 
18

>  <N_unconstrained_atoms>  (65) 
1

>  <runtime>  (65) 
164.915381

>  <regarded>  (65) 
['x0387', 'x1382']

>  <disregarded>  (65) 
[]

>  <rdock>  (65) 
5.75308

>  <n_inspirations>  (65) 
2

>  <crystal_code>  (65) 
x10723

>  <fraction_overlapping>  (65) 
0.555556

>  <rdock_free>  (65) 
7.235384

>  <rdock_free_top10>  (65) 
4.956937

>  <rdock_pharm>  (65) 
nan

>  <rdock_pharm_top10>  (65) 
nan

>  <old_RMSD>  (65) 
6.086339

>  <filtered_reference2minimized_rmsd>  (65) 
nan

>  <based_on_x0434>  (65) 
False

>  <overlap_%>  (65) 
55.555556

$$$$
TRY-UNI-2eddb1ff-3
     RDKit          3D

 19 20  0  0  0  0  0  0  0  0999 V2000
    8.4150    6.8800   21.8260 C   0  0  0  0  0  0  0  0  0  0  0  0
    8.7210    6.8780   23.2030 C   0  0  0  0  0  0  0  0  0  0  0  0
    7.8040    7.4300   24.0860 C   0  0  0  0  0  0  0  0  0  0  0  0
    9.9210    6.3390   23.6920 C   0  0  0  0  0  0  0  0  0  0  0  0
    8.0890    7.4400   25.4510 C   0  0  0  0  0  0  0  0  0  0  0  0
   10.1100    6.4010   25.0720 C   0  0  0  0  0  0  0  0  0  0  0  0
   10.8830    5.7790   22.9310 N   0  0  0  0  0  0  0  0  0  0  0  0
    9.2160    6.9420   25.9730 N   0  0  0  0  0  0  0  0  0  0  0  0
   11.9790    5.0930   23.4900 C   0  0  0  0  0  0  0  0  0  0  0  0
   12.3870    5.3550   24.6100 O   0  0  0  0  0  0  0  0  0  0  0  0
   12.6800    4.0290   22.7280 C   0  0  2  0  0  0  0  0  0  0  0  0
   12.5880    4.3500   21.3830 C   0  0  0  0  0  0  0  0  0  0  0  0
   12.0090    2.6400   23.1050 C   0  0  0  0  0  0  0  0  0  0  0  0
   10.7100    2.6410   23.5970 C   0  0  0  0  0  0  0  0  0  0  0  0
   12.6360    1.3990   22.9900 C   0  0  0  0  0  0  0  0  0  0  0  0
   10.0240    1.5130   23.9690 N   0  0  0  0  0  0  0  0  0  0  0  0
   11.9590    0.2420   23.3590 C   0  0  0  0  0  0  0  0  0  0  0  0
   10.6630    0.3250   23.8420 C   0  0  0  0  0  0  0  0  0  0  0  0
   12.7490   -1.2730   23.2120 Cl  0  0  0  0  0  0  0  0  0  0  0  0
  1  2  1  0
  2  3  2  0
  2  4  1  0
  3  5  1  0
  4  6  2  0
  4  7  1  0
  5  8  2  0
  6  8  1  0
  7  9  1  0
  9 10  2  0
  9 11  1  0
 11 12  1  6
 11 13  1  0
 13 14  2  0
 13 15  1  0
 14 16  1  0
 15 17  2  0
 16 18  2  0
 17 18  1  0
 17 19  1  0
M  END
>  <minimized2hits_rmsd>  (66) 
1.070517

>  <reference2hits_rmsd>  (66) 
4.968685

>  <reference2minimized_rmsd>  (66) 
6.612662

>  <smiles>  (66) 
Cc1ccncc1NC(=O)C(C)c1cncc(Cl)c1

>  <error>  (66) 


>  <mode>  (66) 
expansion

>  <∆∆G>  (66) 
-7.836845

>  <∆G_bound>  (66) 
-7.560865

>  <∆G_unbound>  (66) 
0.27598

>  <comRMSD>  (66) 
1.070517

>  <N_constrained_atoms>  (66) 
15

>  <N_unconstrained_atoms>  (66) 
6

>  <runtime>  (66) 
1667.231608

>  <regarded>  (66) 
['x0104', 'x0387']

>  <disregarded>  (66) 
[]

>  <rdock>  (66) 
6.561323

>  <n_inspirations>  (66) 
2

>  <crystal_code>  (66) 
x10900

>  <fraction_overlapping>  (66) 
0.421053

>  <rdock_free>  (66) 
5.82956

>  <rdock_free_top10>  (66) 
2.432732

>  <rdock_pharm>  (66) 
nan

>  <rdock_pharm_top10>  (66) 
nan

>  <old_RMSD>  (66) 
6.101783

>  <filtered_reference2minimized_rmsd>  (66) 
nan

>  <based_on_x0434>  (66) 
False

>  <overlap_%>  (66) 
42.105263

$$$$
TRY-UNI-2eddb1ff-7
     RDKit          3D

 24 26  0  0  0  0  0  0  0  0999 V2000
    9.9420   -4.5430   25.7180 C   0  0  0  0  0  0  0  0  0  0  0  0
   10.5980   -3.5900   24.8780 C   0  0  0  0  0  0  0  0  0  0  0  0
    9.9140   -2.9840   23.8310 C   0  0  0  0  0  0  0  0  0  0  0  0
   11.9370   -3.2680   25.1020 C   0  0  0  0  0  0  0  0  0  0  0  0
   10.5830   -2.0630   23.0230 C   0  0  0  0  0  0  0  0  0  0  0  0
   12.5250   -2.3350   24.2480 C   0  0  0  0  0  0  0  0  0  0  0  0
   12.6440   -3.8380   26.1030 N   0  0  0  0  0  0  0  0  0  0  0  0
   11.8730   -1.7170   23.2000 N   0  0  0  0  0  0  0  0  0  0  0  0
   14.0390   -4.0240   26.1370 C   0  0  0  0  0  0  0  0  0  0  0  0
   14.7640   -3.0530   26.2360 O   0  0  0  0  0  0  0  0  0  0  0  0
   14.6710   -5.3960   25.8970 C   0  0  0  0  0  0  0  0  0  0  0  0
   15.6920   -5.9480   26.2940 C   0  0  0  0  0  0  0  0  0  0  0  0
   16.5580   -5.3680   25.4800 C   0  0  0  0  0  0  0  0  0  0  0  0
   15.9320   -6.8960   27.3150 C   0  0  0  0  0  0  0  0  0  0  0  0
   17.7440   -5.6350   25.6990 C   0  0  0  0  0  0  0  0  0  0  0  0
   17.1360   -7.1390   27.5680 C   0  0  0  0  0  0  0  0  0  0  0  0
   18.8500   -4.8020   24.7060 Cl  0  0  0  0  0  0  0  0  0  0  0  0
   17.9690   -6.4850   26.7660 C   0  0  0  0  0  0  0  0  0  0  0  0
   17.5740   -7.9050   28.7670 O   0  0  0  0  0  0  0  0  0  0  0  0
   17.1040   -7.4410   30.2530 C   0  0  2  0  0  0  0  0  0  0  0  0
   18.0050   -7.2450   31.3070 C   0  0  0  0  0  0  0  0  0  0  0  0
   16.4800   -8.0660   31.1330 N   0  0  0  0  0  0  0  0  0  0  0  0
   17.4390   -7.9670   32.2410 C   0  0  0  0  0  0  0  0  0  0  0  0
   17.5500   -8.3750   33.3700 O   0  0  0  0  0  0  0  0  0  0  0  0
  1  2  1  0
  2  3  2  0
  2  4  1  0
  3  5  1  0
  4  6  2  0
  4  7  1  0
  5  8  2  0
  6  8  1  0
  7  9  1  0
  9 10  2  0
  9 11  1  0
 11 12  1  0
 12 13  2  0
 12 14  1  0
 13 15  1  0
 14 16  2  0
 15 17  1  0
 15 18  2  0
 16 18  1  0
 16 19  1  0
 20 19  1  6
 20 21  1  0
 20 22  1  0
 21 23  1  0
 22 23  1  0
 23 24  2  0
M  END
>  <minimized2hits_rmsd>  (67) 
2.694619

>  <reference2hits_rmsd>  (67) 
9.096572

>  <reference2minimized_rmsd>  (67) 
10.977226

>  <smiles>  (67) 
Cc1ccncc1NC(=O)Cc1cc(Cl)cc(OC2CC(=O)N2)c1

>  <error>  (67) 


>  <mode>  (67) 
expansion

>  <∆∆G>  (67) 
21.921382

>  <∆G_bound>  (67) 
22.386434

>  <∆G_unbound>  (67) 
0.465052

>  <comRMSD>  (67) 
2.694619

>  <N_constrained_atoms>  (67) 
7

>  <N_unconstrained_atoms>  (67) 
17

>  <runtime>  (67) 
21310.199096

>  <regarded>  (67) 
['x0387']

>  <disregarded>  (67) 
[]

>  <rdock>  (67) 
7.955208

>  <n_inspirations>  (67) 
1

>  <crystal_code>  (67) 
x10789

>  <fraction_overlapping>  (67) 
0.208333

>  <rdock_free>  (67) 
6.600145

>  <rdock_free_top10>  (67) 
4.071272

>  <rdock_pharm>  (67) 
nan

>  <rdock_pharm_top10>  (67) 
nan

>  <old_RMSD>  (67) 
9.674259

>  <filtered_reference2minimized_rmsd>  (67) 
nan

>  <based_on_x0434>  (67) 
False

>  <overlap_%>  (67) 
20.833333

$$$$
JAN-GHE-5a013bed-2
     RDKit          3D

 20 22  0  0  0  0  0  0  0  0999 V2000
    9.2430    1.1500   21.4430 O   0  0  0  0  0  0  0  0  0  0  0  0
    8.7700    0.0450   21.7650 C   0  0  0  0  0  0  0  0  0  0  0  0
    9.0870   -0.6010   23.0180 C   0  0  0  0  0  0  0  0  0  0  0  0
    7.8740   -0.6820   20.9900 N   0  0  0  0  0  0  0  0  0  0  0  0
   10.3800   -1.0350   23.2950 C   0  0  0  0  0  0  0  0  0  0  0  0
    6.8080    0.0270   20.5980 N   0  0  0  0  0  0  0  0  0  0  0  0
   10.9310   -1.2880   24.5440 C   0  0  0  0  0  0  0  0  0  0  0  0
   11.2200   -1.2410   22.0710 C   0  0  0  0  0  0  0  0  0  0  0  0
    5.7770    0.4540   21.4510 C   0  0  0  0  0  0  0  0  0  0  0  0
    6.5360    0.4680   19.3360 C   0  0  0  0  0  0  0  0  0  0  0  0
   12.2370   -1.7020   24.7110 C   0  0  0  0  0  0  0  0  0  0  0  0
   12.5160   -1.6570   22.2230 C   0  0  0  0  0  0  0  0  0  0  0  0
    4.8370    1.2090   20.6560 N   0  0  0  0  0  0  0  0  0  0  0  0
    5.3410    1.1870   19.4440 C   0  0  0  0  0  0  0  0  0  0  0  0
    7.1220    0.4100   17.9510 C   0  0  0  0  0  0  0  0  0  0  0  0
   13.0940   -1.9040   23.5580 C   0  0  0  0  0  0  0  0  0  0  0  0
   13.4240   -1.8810   20.8700 Cl  0  0  0  0  0  0  0  0  0  0  0  0
    4.6680    1.8410   18.4890 C   0  0  0  0  0  0  0  0  0  0  0  0
    6.3840    1.1090   17.0210 C   0  0  0  0  0  0  0  0  0  0  0  0
    5.2130    1.8030   17.2680 C   0  0  0  0  0  0  0  0  0  0  0  0
  1  2  2  0
  2  3  1  0
  2  4  1  0
  3  5  1  0
  4  6  1  0
  5  7  2  0
  5  8  1  0
  6  9  1  0
  6 10  1  0
  7 11  1  0
  8 12  2  0
  9 13  2  0
 10 14  2  0
 13 14  1  0
 10 15  1  0
 11 16  2  0
 12 16  1  0
 12 17  1  0
 14 18  1  0
 15 19  2  0
 18 20  2  0
 19 20  1  0
M  END
>  <minimized2hits_rmsd>  (68) 
1.006642

>  <reference2hits_rmsd>  (68) 
1.554669

>  <reference2minimized_rmsd>  (68) 
2.020414

>  <smiles>  (68) 
O=C(Cc1cccc(Cl)c1)Nn1cnc2ccccc21

>  <error>  (68) 


>  <mode>  (68) 
expansion

>  <∆∆G>  (68) 
-3.803756

>  <∆G_bound>  (68) 
-3.283987

>  <∆G_unbound>  (68) 
0.519769

>  <comRMSD>  (68) 
1.006642

>  <N_constrained_atoms>  (68) 
16

>  <N_unconstrained_atoms>  (68) 
4

>  <runtime>  (68) 
5323.955562

>  <regarded>  (68) 
['x0678']

>  <disregarded>  (68) 
[]

>  <rdock>  (68) 
3.061322

>  <n_inspirations>  (68) 
1

>  <crystal_code>  (68) 
x10466

>  <fraction_overlapping>  (68) 
0.8

>  <rdock_free>  (68) 
2.727674

>  <rdock_free_top10>  (68) 
2.27076

>  <rdock_pharm>  (68) 
1.587035

>  <rdock_pharm_top10>  (68) 
0.756818

>  <old_RMSD>  (68) 
3.881892

>  <filtered_reference2minimized_rmsd>  (68) 
nan

>  <based_on_x0434>  (68) 
False

>  <overlap_%>  (68) 
80.0

$$$$
EDG-MED-0da5ad92-1
     RDKit          3D

 19 20  0  0  0  0  0  0  0  0999 V2000
    4.4200    0.7050   21.5360 C   0  0  0  0  0  0  0  0  0  0  0  0
    5.0840    0.6660   20.2740 C   0  0  0  0  0  0  0  0  0  0  0  0
    4.5050    1.2680   19.1650 C   0  0  0  0  0  0  0  0  0  0  0  0
    6.3230    0.0290   20.1370 C   0  0  0  0  0  0  0  0  0  0  0  0
    5.1670    1.2180   17.9480 C   0  0  0  0  0  0  0  0  0  0  0  0
    6.8900    0.0260   18.8890 C   0  0  0  0  0  0  0  0  0  0  0  0
    6.9720   -0.5650   21.1500 N   0  0  0  0  0  0  0  0  0  0  0  0
    6.3400    0.6040   17.7910 N   0  0  0  0  0  0  0  0  0  0  0  0
    6.5930   -1.7900   21.7440 C   0  0  0  0  0  0  0  0  0  0  0  0
    8.1270    0.1750   21.6120 C   0  0  0  0  0  0  0  0  0  0  0  0
    8.6490    1.1870   21.1040 O   0  0  0  0  0  0  0  0  0  0  0  0
    8.6070   -0.4260   22.7700 C   0  0  0  0  0  0  0  0  0  0  0  0
    9.9640   -0.3280   22.9030 C   0  0  0  0  0  0  0  0  0  0  0  0
   10.5520    0.6230   23.7040 C   0  0  0  0  0  0  0  0  0  0  0  0
   10.8710   -1.2760   22.1500 C   0  0  0  0  0  0  0  0  0  0  0  0
   11.9270    0.7340   23.8290 C   0  0  0  0  0  0  0  0  0  0  0  0
   12.3420   -1.1180   22.3190 C   0  0  0  0  0  0  0  0  0  0  0  0
   12.8010   -0.1070   23.1600 C   0  0  0  0  0  0  0  0  0  0  0  0
   13.3030   -2.2040   21.4450 Cl  0  0  0  0  0  0  0  0  0  0  0  0
  1  2  1  0
  2  3  2  0
  2  4  1  0
  3  5  1  0
  4  6  2  0
  4  7  1  0
  5  8  2  0
  6  8  1  0
  7  9  1  0
  7 10  1  0
 10 11  2  0
 10 12  1  0
 12 13  1  0
 13 14  2  0
 13 15  1  0
 14 16  1  0
 15 17  2  0
 16 18  2  0
 17 18  1  0
 17 19  1  0
M  END
>  <minimized2hits_rmsd>  (69) 
0.611103

>  <reference2hits_rmsd>  (69) 
0.401212

>  <reference2minimized_rmsd>  (69) 
0.471612

>  <smiles>  (69) 
Cc1ccncc1N(C)C(=O)Cc1cccc(Cl)c1

>  <error>  (69) 


>  <mode>  (69) 
expansion

>  <∆∆G>  (69) 
-8.21894

>  <∆G_bound>  (69) 
-8.466626

>  <∆G_unbound>  (69) 
-0.247686

>  <comRMSD>  (69) 
0.611103

>  <N_constrained_atoms>  (69) 
16

>  <N_unconstrained_atoms>  (69) 
3

>  <runtime>  (69) 
67.418798

>  <regarded>  (69) 
['x0434']

>  <disregarded>  (69) 
[]

>  <rdock>  (69) 
6.235606

>  <n_inspirations>  (69) 
1

>  <crystal_code>  (69) 
x11041

>  <fraction_overlapping>  (69) 
0.842105

>  <rdock_free>  (69) 
6.162899

>  <rdock_free_top10>  (69) 
6.153975

>  <rdock_pharm>  (69) 
2.209647

>  <rdock_pharm_top10>  (69) 
1.36873

>  <old_RMSD>  (69) 
0.541817

>  <filtered_reference2minimized_rmsd>  (69) 
0.471612

>  <based_on_x0434>  (69) 
True

>  <overlap_%>  (69) 
84.210526

$$$$
EDG-MED-0da5ad92-2
     RDKit          3D

 17 18  0  0  0  0  0  0  0  0999 V2000
    8.7620    0.7270   21.2310 O   0  0  0  0  0  0  0  0  0  0  0  0
    8.3330   -0.3870   21.4920 C   0  0  0  0  0  0  0  0  0  0  0  0
    9.1570   -1.3040   22.2050 C   0  0  0  0  0  0  0  0  0  0  0  0
    7.0730   -0.8010   21.1230 N   0  0  0  0  0  0  0  0  0  0  0  0
   10.4080   -0.8010   22.4860 C   0  0  0  0  0  0  0  0  0  0  0  0
    6.3400   -0.0950   20.1550 C   0  0  0  0  0  0  0  0  0  0  0  0
   11.6200   -1.4920   22.4440 C   0  0  0  0  0  0  0  0  0  0  0  0
   10.3370    0.6880   22.8500 C   0  0  0  0  0  0  0  0  0  0  0  0
    5.1370    0.5850   20.3550 C   0  0  0  0  0  0  0  0  0  0  0  0
    6.8840   -0.0740   18.8860 C   0  0  0  0  0  0  0  0  0  0  0  0
   12.7950   -0.8310   22.7290 C   0  0  0  0  0  0  0  0  0  0  0  0
   11.4880    1.3770   23.1250 C   0  0  0  0  0  0  0  0  0  0  0  0
    4.5430    1.2540   19.2970 C   0  0  0  0  0  0  0  0  0  0  0  0
    6.3560    0.5550   17.8280 N   0  0  0  0  0  0  0  0  0  0  0  0
   12.7850    0.6230   23.0750 C   0  0  0  0  0  0  0  0  0  0  0  0
   11.3560    3.0480   23.4750 Cl  0  0  0  0  0  0  0  0  0  0  0  0
    5.1550    1.2340   18.0580 C   0  0  0  0  0  0  0  0  0  0  0  0
  1  2  2  0
  2  3  1  0
  2  4  1  0
  3  5  1  0
  4  6  1  0
  5  7  2  0
  5  8  1  0
  6  9  2  0
  6 10  1  0
  7 11  1  0
  8 12  2  0
  9 13  1  0
 10 14  2  0
 11 15  2  0
 12 15  1  0
 12 16  1  0
 13 17  2  0
 14 17  1  0
M  END
>  <minimized2hits_rmsd>  (70) 
0.616428

>  <reference2hits_rmsd>  (70) 
1.280829

>  <reference2minimized_rmsd>  (70) 
1.958377

>  <smiles>  (70) 
O=C(Cc1cccc(Cl)c1)Nc1cccnc1

>  <error>  (70) 


>  <mode>  (70) 
expansion

>  <∆∆G>  (70) 
-7.201164

>  <∆G_bound>  (70) 
-6.840362

>  <∆G_unbound>  (70) 
0.360801

>  <comRMSD>  (70) 
0.616428

>  <N_constrained_atoms>  (70) 
16

>  <N_unconstrained_atoms>  (70) 
1

>  <runtime>  (70) 
45.523092

>  <regarded>  (70) 
['x0434']

>  <disregarded>  (70) 
[]

>  <rdock>  (70) 
2.675227

>  <n_inspirations>  (70) 
1

>  <crystal_code>  (70) 
x10201

>  <fraction_overlapping>  (70) 
0.882353

>  <rdock_free>  (70) 
7.345182

>  <rdock_free_top10>  (70) 
5.909785

>  <rdock_pharm>  (70) 
1.945532

>  <rdock_pharm_top10>  (70) 
1.039983

>  <old_RMSD>  (70) 
1.747063

>  <filtered_reference2minimized_rmsd>  (70) 
1.958377

>  <based_on_x0434>  (70) 
True

>  <overlap_%>  (70) 
88.235294

$$$$
EDG-MED-0da5ad92-7
     RDKit          3D

 23 24  0  0  0  0  0  0  0  0999 V2000
   14.4920   -4.6970   20.6150 C   0  0  0  0  0  0  0  0  0  0  0  0
   13.3640   -3.7890   20.4480 C   0  0  0  0  0  0  0  0  0  0  0  0
   13.2300   -2.4990   20.8930 C   0  0  0  0  0  0  0  0  0  0  0  0
   12.9960   -2.3830   22.2440 C   0  0  0  0  0  0  0  0  0  0  0  0
   11.8640   -2.1500   22.6140 O   0  0  0  0  0  0  0  0  0  0  0  0
   11.6940   -0.8300   22.7490 C   0  0  0  0  0  0  0  0  0  0  0  0
   12.9010    0.0280   22.9680 C   0  0  0  0  0  0  0  0  0  0  0  0
   10.4090   -0.2970   22.6740 C   0  0  0  0  0  0  0  0  0  0  0  0
   12.6680    1.5080   23.1120 C   0  0  0  0  0  0  0  0  0  0  0  0
   10.2780    1.0620   22.8320 C   0  0  0  0  0  0  0  0  0  0  0  0
    9.2330   -0.9730   22.4360 C   0  0  0  0  0  0  0  0  0  0  0  0
   11.2730    1.9700   23.0350 C   0  0  0  0  0  0  0  0  0  0  0  0
    8.4380   -0.2230   21.5590 C   0  0  0  0  0  0  0  0  0  0  0  0
   10.8960    3.6430   23.1950 Cl  0  0  0  0  0  0  0  0  0  0  0  0
    8.7770    0.9100   21.2120 O   0  0  0  0  0  0  0  0  0  0  0  0
    7.2640   -0.7920   21.0900 N   0  0  0  0  0  0  0  0  0  0  0  0
    6.5410   -0.0930   20.0980 C   0  0  0  0  0  0  0  0  0  0  0  0
    6.8730   -0.1750   18.7440 C   0  0  0  0  0  0  0  0  0  0  0  0
    5.4520    0.7330   20.4550 C   0  0  0  0  0  0  0  0  0  0  0  0
    6.2410    0.4760   17.7310 N   0  0  0  0  0  0  0  0  0  0  0  0
    4.8100    1.3910   19.4100 C   0  0  0  0  0  0  0  0  0  0  0  0
    5.0300    0.9000   21.7600 C   0  0  0  0  0  0  0  0  0  0  0  0
    5.2050    1.2570   18.1040 C   0  0  0  0  0  0  0  0  0  0  0  0
  1  2  1  0
  2  3  1  0
  3  4  1  0
  4  5  1  0
  5  6  1  0
  6  7  2  0
  6  8  1  0
  7  9  1  0
  8 10  2  0
  8 11  1  0
  9 12  2  0
 10 12  1  0
 11 13  1  0
 12 14  1  0
 13 15  2  0
 13 16  1  0
 16 17  1  0
 17 18  2  0
 17 19  1  0
 18 20  1  0
 19 21  2  0
 19 22  1  0
 20 23  2  0
 21 23  1  0
M  END
>  <minimized2hits_rmsd>  (71) 
0.717162

>  <reference2hits_rmsd>  (71) 
1.274566

>  <reference2minimized_rmsd>  (71) 
4.275096

>  <smiles>  (71) 
CCCCOc1ccc(Cl)cc1CC(=O)Nc1cnccc1C

>  <error>  (71) 


>  <mode>  (71) 
expansion

>  <∆∆G>  (71) 
-2.292971

>  <∆G_bound>  (71) 
-2.648577

>  <∆G_unbound>  (71) 
-0.355605

>  <comRMSD>  (71) 
0.717162

>  <N_constrained_atoms>  (71) 
16

>  <N_unconstrained_atoms>  (71) 
7

>  <runtime>  (71) 
102.658921

>  <regarded>  (71) 
['x0434']

>  <disregarded>  (71) 
[]

>  <rdock>  (71) 
5.399414

>  <n_inspirations>  (71) 
1

>  <crystal_code>  (71) 
x11562

>  <fraction_overlapping>  (71) 
0.695652

>  <rdock_free>  (71) 
5.910971

>  <rdock_free_top10>  (71) 
4.040821

>  <rdock_pharm>  (71) 
3.839747

>  <rdock_pharm_top10>  (71) 
2.667752

>  <old_RMSD>  (71) 
1.859337

>  <filtered_reference2minimized_rmsd>  (71) 
nan

>  <based_on_x0434>  (71) 
True

>  <overlap_%>  (71) 
69.565217

$$$$
EDG-MED-0da5ad92-8
     RDKit          3D

 18 19  0  0  0  0  0  0  0  0999 V2000
    4.9340    1.0570   21.5730 C   0  0  0  0  0  0  0  0  0  0  0  0
    5.3800    0.9080   20.2290 C   0  0  0  0  0  0  0  0  0  0  0  0
    4.7090    1.5460   19.1970 C   0  0  0  0  0  0  0  0  0  0  0  0
    6.5000    0.1220   19.9380 C   0  0  0  0  0  0  0  0  0  0  0  0
    5.1750    1.3830   17.9000 C   0  0  0  0  0  0  0  0  0  0  0  0
    6.8760    0.0180   18.6220 C   0  0  0  0  0  0  0  0  0  0  0  0
    7.1980   -0.5030   20.8810 N   0  0  0  0  0  0  0  0  0  0  0  0
    6.2350    0.6360   17.5880 N   0  0  0  0  0  0  0  0  0  0  0  0
    8.2560    0.0970   21.5730 C   0  0  0  0  0  0  0  0  0  0  0  0
    8.8250    1.1320   21.1770 O   0  0  0  0  0  0  0  0  0  0  0  0
    8.7380   -0.5000   22.8540 C   0  0  0  0  0  0  0  0  0  0  0  0
   10.0970   -0.3470   23.0140 C   0  0  0  0  0  0  0  0  0  0  0  0
   10.6360    0.5650   23.9140 C   0  0  0  0  0  0  0  0  0  0  0  0
   10.9440   -1.1070   22.2640 C   0  0  0  0  0  0  0  0  0  0  0  0
   11.9700    0.7420   24.0780 N   0  0  0  0  0  0  0  0  0  0  0  0
   12.2850   -0.9500   22.4110 C   0  0  0  0  0  0  0  0  0  0  0  0
   12.7770   -0.0220   23.3170 C   0  0  0  0  0  0  0  0  0  0  0  0
   13.2370   -1.9430   21.4270 Cl  0  0  0  0  0  0  0  0  0  0  0  0
  1  2  1  0
  2  3  2  0
  2  4  1  0
  3  5  1  0
  4  6  2  0
  4  7  1  0
  5  8  2  0
  6  8  1  0
  7  9  1  0
  9 10  2  0
  9 11  1  0
 11 12  1  0
 12 13  2  0
 12 14  1  0
 13 15  1  0
 14 16  2  0
 15 17  2  0
 16 17  1  0
 16 18  1  0
M  END
>  <minimized2hits_rmsd>  (72) 
0.505188

>  <reference2hits_rmsd>  (72) 
0.440904

>  <reference2minimized_rmsd>  (72) 
0.432112

>  <smiles>  (72) 
Cc1ccncc1NC(=O)Cc1cncc(Cl)c1

>  <error>  (72) 


>  <mode>  (72) 
expansion

>  <∆∆G>  (72) 
-5.478308

>  <∆G_bound>  (72) 
-5.108232

>  <∆G_unbound>  (72) 
0.370076

>  <comRMSD>  (72) 
0.505188

>  <N_constrained_atoms>  (72) 
16

>  <N_unconstrained_atoms>  (72) 
2

>  <runtime>  (72) 
40.965065

>  <regarded>  (72) 
['x0434']

>  <disregarded>  (72) 
[]

>  <rdock>  (72) 
3.114298

>  <n_inspirations>  (72) 
1

>  <crystal_code>  (72) 
x10723

>  <fraction_overlapping>  (72) 
0.833333

>  <rdock_free>  (72) 
2.396015

>  <rdock_free_top10>  (72) 
2.050636

>  <rdock_pharm>  (72) 
2.06311

>  <rdock_pharm_top10>  (72) 
1.322373

>  <old_RMSD>  (72) 
0.542817

>  <filtered_reference2minimized_rmsd>  (72) 
0.432112

>  <based_on_x0434>  (72) 
True

>  <overlap_%>  (72) 
83.333333

$$$$
EDG-MED-0da5ad92-10
     RDKit          3D

 20 21  0  0  0  0  0  0  0  0999 V2000
    4.4100    0.5250   21.5450 C   0  0  0  0  0  0  0  0  0  0  0  0
    5.0780    0.5490   20.2890 C   0  0  0  0  0  0  0  0  0  0  0  0
    4.5270    1.2390   19.2120 C   0  0  0  0  0  0  0  0  0  0  0  0
    6.2930   -0.1220   20.1290 C   0  0  0  0  0  0  0  0  0  0  0  0
    5.2050    1.2400   17.9970 C   0  0  0  0  0  0  0  0  0  0  0  0
    6.8800   -0.0690   18.8900 C   0  0  0  0  0  0  0  0  0  0  0  0
    6.8920   -0.7970   21.1240 N   0  0  0  0  0  0  0  0  0  0  0  0
    6.3620    0.5970   17.8170 N   0  0  0  0  0  0  0  0  0  0  0  0
    8.1070   -0.4370   21.7310 C   0  0  0  0  0  0  0  0  0  0  0  0
    8.7430    0.5560   21.3780 O   0  0  0  0  0  0  0  0  0  0  0  0
    8.6790   -1.2500   22.8540 C   0  0  0  0  0  0  0  0  0  0  0  0
    8.6660   -2.6420   22.7240 C   0  0  0  0  0  0  0  0  0  0  0  0
    8.0220   -0.8230   24.1960 C   0  0  0  0  0  0  0  0  0  0  0  0
   10.1290   -0.7820   22.9480 C   0  0  0  0  0  0  0  0  0  0  0  0
   10.5010    0.2500   23.7870 C   0  0  0  0  0  0  0  0  0  0  0  0
   11.0670   -1.4040   22.1720 C   0  0  0  0  0  0  0  0  0  0  0  0
   11.8130    0.7130   23.8860 C   0  0  0  0  0  0  0  0  0  0  0  0
   12.3590   -1.0100   22.2190 C   0  0  0  0  0  0  0  0  0  0  0  0
   12.7970    0.1190   23.1200 C   0  0  0  0  0  0  0  0  0  0  0  0
   13.3550   -1.8780   21.1900 Cl  0  0  0  0  0  0  0  0  0  0  0  0
  1  2  1  0
  2  3  2  0
  2  4  1  0
  3  5  1  0
  4  6  2  0
  4  7  1  0
  5  8  2  0
  6  8  1  0
  7  9  1  0
  9 10  2  0
  9 11  1  0
 11 12  1  0
 11 13  1  0
 11 14  1  0
 14 15  2  0
 14 16  1  0
 15 17  1  0
 16 18  2  0
 17 19  2  0
 18 19  1  0
 18 20  1  0
M  END
>  <minimized2hits_rmsd>  (73) 
0.556811

>  <reference2hits_rmsd>  (73) 
0.668535

>  <reference2minimized_rmsd>  (73) 
1.161347

>  <smiles>  (73) 
Cc1ccncc1NC(=O)C(C)(C)c1cccc(Cl)c1

>  <error>  (73) 


>  <mode>  (73) 
expansion

>  <∆∆G>  (73) 
-8.18298

>  <∆G_bound>  (73) 
-8.640882

>  <∆G_unbound>  (73) 
-0.457901

>  <comRMSD>  (73) 
0.556811

>  <N_constrained_atoms>  (73) 
16

>  <N_unconstrained_atoms>  (73) 
4

>  <runtime>  (73) 
51.839681

>  <regarded>  (73) 
['x0434']

>  <disregarded>  (73) 
[]

>  <rdock>  (73) 
4.056272

>  <n_inspirations>  (73) 
1

>  <crystal_code>  (73) 
x10422

>  <fraction_overlapping>  (73) 
0.8

>  <rdock_free>  (73) 
2.07362

>  <rdock_free_top10>  (73) 
2.07362

>  <rdock_pharm>  (73) 
1.860414

>  <rdock_pharm_top10>  (73) 
1.650875

>  <old_RMSD>  (73) 
1.728463

>  <filtered_reference2minimized_rmsd>  (73) 
nan

>  <based_on_x0434>  (73) 
True

>  <overlap_%>  (73) 
80.0

$$$$
EDG-MED-0da5ad92-11
     RDKit          3D

 20 22  0  0  0  0  0  0  0  0999 V2000
    5.0060    0.8630   21.7090 C   0  0  0  0  0  0  0  0  0  0  0  0
    5.4230    0.7380   20.3540 C   0  0  0  0  0  0  0  0  0  0  0  0
    4.7680    1.4410   19.3430 C   0  0  0  0  0  0  0  0  0  0  0  0
    6.5000   -0.0880   20.0340 C   0  0  0  0  0  0  0  0  0  0  0  0
    5.2130    1.3000   18.0370 C   0  0  0  0  0  0  0  0  0  0  0  0
    6.8640   -0.1610   18.7070 C   0  0  0  0  0  0  0  0  0  0  0  0
    7.1820   -0.7930   20.9640 N   0  0  0  0  0  0  0  0  0  0  0  0
    6.2400    0.5200   17.6960 N   0  0  0  0  0  0  0  0  0  0  0  0
    8.3540   -0.3090   21.5490 C   0  0  0  0  0  0  0  0  0  0  0  0
    8.7570    0.8170   21.2750 O   0  0  0  0  0  0  0  0  0  0  0  0
    9.2070   -1.0730   22.5150 C   0  0  0  0  0  0  0  0  0  0  0  0
   10.4940   -0.5900   22.6830 C   0  0  0  0  0  0  0  0  0  0  0  0
    8.9300   -2.4850   22.6140 C   0  0  0  0  0  0  0  0  0  0  0  0
    8.4700   -1.8590   23.6690 C   0  0  0  0  0  0  0  0  0  0  0  0
   11.6250   -1.3990   22.7120 C   0  0  0  0  0  0  0  0  0  0  0  0
   10.6150    0.7890   22.8030 C   0  0  0  0  0  0  0  0  0  0  0  0
   12.8720   -0.8070   22.8620 C   0  0  0  0  0  0  0  0  0  0  0  0
   11.8520    1.3740   22.9400 C   0  0  0  0  0  0  0  0  0  0  0  0
   12.9760    0.5720   22.9720 C   0  0  0  0  0  0  0  0  0  0  0  0
   11.9210    3.0900   23.0410 Cl  0  0  0  0  0  0  0  0  0  0  0  0
  1  2  1  0
  2  3  2  0
  2  4  1  0
  3  5  1  0
  4  6  2  0
  4  7  1  0
  5  8  2  0
  6  8  1  0
  7  9  1  0
  9 10  2  0
 11  9  1  0
 11 12  1  0
 11 13  1  0
 11 14  1  0
 13 14  1  0
 12 15  2  0
 12 16  1  0
 15 17  1  0
 16 18  2  0
 17 19  2  0
 18 19  1  0
 18 20  1  0
M  END
>  <minimized2hits_rmsd>  (74) 
0.626737

>  <reference2hits_rmsd>  (74) 
1.284314

>  <reference2minimized_rmsd>  (74) 
1.64643

>  <smiles>  (74) 
Cc1ccncc1NC(=O)C1(c2cccc(Cl)c2)CC1

>  <error>  (74) 


>  <mode>  (74) 
expansion

>  <∆∆G>  (74) 
-7.721295

>  <∆G_bound>  (74) 
-7.535855

>  <∆G_unbound>  (74) 
0.18544

>  <comRMSD>  (74) 
0.626737

>  <N_constrained_atoms>  (74) 
16

>  <N_unconstrained_atoms>  (74) 
4

>  <runtime>  (74) 
80.653996

>  <regarded>  (74) 
['x0434']

>  <disregarded>  (74) 
[]

>  <rdock>  (74) 
5.895238

>  <n_inspirations>  (74) 
1

>  <crystal_code>  (74) 
x10392

>  <fraction_overlapping>  (74) 
0.75

>  <rdock_free>  (74) 
2.202649

>  <rdock_free_top10>  (74) 
1.347242

>  <rdock_pharm>  (74) 
1.962701

>  <rdock_pharm_top10>  (74) 
1.909149

>  <old_RMSD>  (74) 
1.637489

>  <filtered_reference2minimized_rmsd>  (74) 
nan

>  <based_on_x0434>  (74) 
True

>  <overlap_%>  (74) 
75.0

$$$$
EDG-MED-0da5ad92-12
     RDKit          3D

 18 19  0  0  0  0  0  0  0  0999 V2000
    3.3660    2.0230   19.4720 C   0  0  0  0  0  0  0  0  0  0  0  0
    4.5820    1.3250   19.1930 C   0  0  0  0  0  0  0  0  0  0  0  0
    5.1430    1.3360   17.9380 C   0  0  0  0  0  0  0  0  0  0  0  0
    5.2340    0.6090   20.2140 C   0  0  0  0  0  0  0  0  0  0  0  0
    6.3200    0.6450   17.6990 N   0  0  0  0  0  0  0  0  0  0  0  0
    6.4390   -0.0960   19.9880 C   0  0  0  0  0  0  0  0  0  0  0  0
    6.9570   -0.0630   18.7040 C   0  0  0  0  0  0  0  0  0  0  0  0
    7.0750   -0.7690   20.9530 N   0  0  0  0  0  0  0  0  0  0  0  0
    8.1630   -0.2590   21.6670 C   0  0  0  0  0  0  0  0  0  0  0  0
    8.7580    0.7570   21.3100 O   0  0  0  0  0  0  0  0  0  0  0  0
    8.6680   -0.9190   22.9340 C   0  0  0  0  0  0  0  0  0  0  0  0
   10.1010   -0.5630   23.0350 C   0  0  0  0  0  0  0  0  0  0  0  0
   10.5680    0.4760   23.8400 C   0  0  0  0  0  0  0  0  0  0  0  0
   10.9800   -1.2930   22.2890 C   0  0  0  0  0  0  0  0  0  0  0  0
   11.9250    0.7620   23.8700 C   0  0  0  0  0  0  0  0  0  0  0  0
   12.3060   -1.0080   22.3230 C   0  0  0  0  0  0  0  0  0  0  0  0
   12.8040    0.0230   23.1110 C   0  0  0  0  0  0  0  0  0  0  0  0
   13.2490   -1.9990   21.3340 Cl  0  0  0  0  0  0  0  0  0  0  0  0
  1  2  1  0
  2  3  2  0
  2  4  1  0
  3  5  1  0
  4  6  2  0
  5  7  2  0
  6  7  1  0
  6  8  1  0
  8  9  1  0
  9 10  2  0
  9 11  1  0
 11 12  1  0
 12 13  2  0
 12 14  1  0
 13 15  1  0
 14 16  2  0
 15 17  2  0
 16 17  1  0
 16 18  1  0
M  END
>  <minimized2hits_rmsd>  (75) 
0.519378

>  <reference2hits_rmsd>  (75) 
0.444337

>  <reference2minimized_rmsd>  (75) 
0.353165

>  <smiles>  (75) 
Cc1cncc(NC(=O)Cc2cccc(Cl)c2)c1

>  <error>  (75) 


>  <mode>  (75) 
expansion

>  <∆∆G>  (75) 
-7.296341

>  <∆G_bound>  (75) 
-7.035753

>  <∆G_unbound>  (75) 
0.260588

>  <comRMSD>  (75) 
0.519378

>  <N_constrained_atoms>  (75) 
16

>  <N_unconstrained_atoms>  (75) 
2

>  <runtime>  (75) 
64.868072

>  <regarded>  (75) 
['x0434']

>  <disregarded>  (75) 
[]

>  <rdock>  (75) 
2.7126

>  <n_inspirations>  (75) 
1

>  <crystal_code>  (75) 
x10976

>  <fraction_overlapping>  (75) 
0.833333

>  <rdock_free>  (75) 
7.66442

>  <rdock_free_top10>  (75) 
5.889998

>  <rdock_pharm>  (75) 
2.54699

>  <rdock_pharm_top10>  (75) 
0.78075

>  <old_RMSD>  (75) 
0.469196

>  <filtered_reference2minimized_rmsd>  (75) 
0.353165

>  <based_on_x0434>  (75) 
True

>  <overlap_%>  (75) 
83.333333

$$$$
EDG-MED-0da5ad92-15
     RDKit          3D

 18 19  0  0  0  0  0  0  0  0999 V2000
    4.9790    0.7660   21.6030 C   0  0  0  0  0  0  0  0  0  0  0  0
    5.4090    0.7400   20.2490 C   0  0  0  0  0  0  0  0  0  0  0  0
    4.7440    1.4870   19.2920 C   0  0  0  0  0  0  0  0  0  0  0  0
    6.5020   -0.0250   19.8480 C   0  0  0  0  0  0  0  0  0  0  0  0
    5.2170    1.4310   17.9850 C   0  0  0  0  0  0  0  0  0  0  0  0
    6.9220   -0.0490   18.5740 N   0  0  0  0  0  0  0  0  0  0  0  0
    7.2160   -0.8040   20.7760 N   0  0  0  0  0  0  0  0  0  0  0  0
    6.2730    0.6910   17.6300 N   0  0  0  0  0  0  0  0  0  0  0  0
    8.3600   -0.3700   21.3890 C   0  0  0  0  0  0  0  0  0  0  0  0
    8.7920    0.7740   21.2900 O   0  0  0  0  0  0  0  0  0  0  0  0
    9.1180   -1.3960   22.2190 C   0  0  0  0  0  0  0  0  0  0  0  0
   10.4240   -0.7430   22.5330 C   0  0  0  0  0  0  0  0  0  0  0  0
   11.6490   -1.4070   22.4830 C   0  0  0  0  0  0  0  0  0  0  0  0
   10.3860    0.5940   22.8660 C   0  0  0  0  0  0  0  0  0  0  0  0
   12.8290   -0.7180   22.7650 C   0  0  0  0  0  0  0  0  0  0  0  0
   11.5380    1.2750   23.1280 C   0  0  0  0  0  0  0  0  0  0  0  0
   12.7650    0.6280   23.0840 C   0  0  0  0  0  0  0  0  0  0  0  0
   11.3690    2.9450   23.4790 Cl  0  0  0  0  0  0  0  0  0  0  0  0
  1  2  1  0
  2  3  2  0
  2  4  1  0
  3  5  1  0
  4  6  2  0
  4  7  1  0
  5  8  2  0
  6  8  1  0
  7  9  1  0
  9 10  2  0
  9 11  1  0
 11 12  1  0
 12 13  2  0
 12 14  1  0
 13 15  1  0
 14 16  2  0
 15 17  2  0
 16 17  1  0
 16 18  1  0
M  END
>  <minimized2hits_rmsd>  (76) 
0.567145

>  <reference2hits_rmsd>  (76) 
1.246324

>  <reference2minimized_rmsd>  (76) 
1.774372

>  <smiles>  (76) 
Cc1ccnnc1NC(=O)Cc1cccc(Cl)c1

>  <error>  (76) 


>  <mode>  (76) 
expansion

>  <∆∆G>  (76) 
-5.37014

>  <∆G_bound>  (76) 
-5.715262

>  <∆G_unbound>  (76) 
-0.345122

>  <comRMSD>  (76) 
0.567145

>  <N_constrained_atoms>  (76) 
16

>  <N_unconstrained_atoms>  (76) 
2

>  <runtime>  (76) 
62.808334

>  <regarded>  (76) 
['x0434']

>  <disregarded>  (76) 
[]

>  <rdock>  (76) 
3.195417

>  <n_inspirations>  (76) 
1

>  <crystal_code>  (76) 
x11485

>  <fraction_overlapping>  (76) 
0.888889

>  <rdock_free>  (76) 
7.240019

>  <rdock_free_top10>  (76) 
2.091126

>  <rdock_pharm>  (76) 
2.080157

>  <rdock_pharm_top10>  (76) 
2.07579

>  <old_RMSD>  (76) 
1.789248

>  <filtered_reference2minimized_rmsd>  (76) 
1.774372

>  <based_on_x0434>  (76) 
True

>  <overlap_%>  (76) 
88.888889

$$$$
EDG-MED-0da5ad92-16
     RDKit          3D

 18 19  0  0  0  0  0  0  0  0999 V2000
    4.8190    1.0980   21.4610 C   0  0  0  0  0  0  0  0  0  0  0  0
    5.3220    0.9050   20.1470 C   0  0  0  0  0  0  0  0  0  0  0  0
    4.6810    1.4800   19.0720 C   0  0  0  0  0  0  0  0  0  0  0  0
    6.4630    0.1460   19.8770 C   0  0  0  0  0  0  0  0  0  0  0  0
    5.1180    1.3410   17.7530 N   0  0  0  0  0  0  0  0  0  0  0  0
    6.8600    0.0300   18.5660 C   0  0  0  0  0  0  0  0  0  0  0  0
    7.1440   -0.4470   20.9380 N   0  0  0  0  0  0  0  0  0  0  0  0
    6.2190    0.6050   17.5350 N   0  0  0  0  0  0  0  0  0  0  0  0
    8.2300    0.1090   21.5650 C   0  0  0  0  0  0  0  0  0  0  0  0
    8.8390    1.1400   21.2140 O   0  0  0  0  0  0  0  0  0  0  0  0
    8.6570   -0.6640   22.7990 C   0  0  0  0  0  0  0  0  0  0  0  0
   10.1050   -0.4130   22.9510 C   0  0  0  0  0  0  0  0  0  0  0  0
   10.6010    0.5770   23.7880 C   0  0  0  0  0  0  0  0  0  0  0  0
   10.9590   -1.1880   22.2190 C   0  0  0  0  0  0  0  0  0  0  0  0
   11.9690    0.7770   23.8720 C   0  0  0  0  0  0  0  0  0  0  0  0
   12.2970   -0.9830   22.3100 C   0  0  0  0  0  0  0  0  0  0  0  0
   12.8250   -0.0020   23.1320 C   0  0  0  0  0  0  0  0  0  0  0  0
   13.2390   -2.0000   21.3450 Cl  0  0  0  0  0  0  0  0  0  0  0  0
  1  2  1  0
  2  3  2  0
  2  4  1  0
  3  5  1  0
  4  6  2  0
  4  7  1  0
  5  8  2  0
  6  8  1  0
  7  9  1  0
  9 10  2  0
  9 11  1  0
 11 12  1  0
 12 13  2  0
 12 14  1  0
 13 15  1  0
 14 16  2  0
 15 17  2  0
 16 17  1  0
 16 18  1  0
M  END
>  <minimized2hits_rmsd>  (77) 
0.526556

>  <reference2hits_rmsd>  (77) 
0.42794

>  <reference2minimized_rmsd>  (77) 
0.329789

>  <smiles>  (77) 
Cc1cnncc1NC(=O)Cc1cccc(Cl)c1

>  <error>  (77) 


>  <mode>  (77) 
expansion

>  <∆∆G>  (77) 
-3.915922

>  <∆G_bound>  (77) 
-4.378179

>  <∆G_unbound>  (77) 
-0.462257

>  <comRMSD>  (77) 
0.526556

>  <N_constrained_atoms>  (77) 
16

>  <N_unconstrained_atoms>  (77) 
2

>  <runtime>  (77) 
39.347097

>  <regarded>  (77) 
['x0434']

>  <disregarded>  (77) 
[]

>  <rdock>  (77) 
5.321711

>  <n_inspirations>  (77) 
1

>  <crystal_code>  (77) 
x11013

>  <fraction_overlapping>  (77) 
0.888889

>  <rdock_free>  (77) 
2.339882

>  <rdock_free_top10>  (77) 
1.911892

>  <rdock_pharm>  (77) 
2.131081

>  <rdock_pharm_top10>  (77) 
1.417341

>  <old_RMSD>  (77) 
1.772608

>  <filtered_reference2minimized_rmsd>  (77) 
0.329789

>  <based_on_x0434>  (77) 
True

>  <overlap_%>  (77) 
88.888889

$$$$
EDG-MED-0da5ad92-18
     RDKit          3D

 19 20  0  0  0  0  0  0  0  0999 V2000
    4.8710    1.4930   21.8010 C   0  0  0  0  0  0  0  0  0  0  0  0
    5.2240    1.2530   20.4420 C   0  0  0  0  0  0  0  0  0  0  0  0
    4.5610    1.9030   19.4180 C   0  0  0  0  0  0  0  0  0  0  0  0
    6.2420    0.3720   20.1080 C   0  0  0  0  0  0  0  0  0  0  0  0
    4.9410    1.6480   18.1120 C   0  0  0  0  0  0  0  0  0  0  0  0
    6.5450    0.1640   18.7980 C   0  0  0  0  0  0  0  0  0  0  0  0
    6.9630   -0.2890   21.1010 N   0  0  0  0  0  0  0  0  0  0  0  0
    5.9000    0.8020   17.7780 N   0  0  0  0  0  0  0  0  0  0  0  0
    7.5060   -0.6900   18.4840 N   0  0  0  0  0  0  0  0  0  0  0  0
    8.2380    0.1430   21.4880 C   0  0  0  0  0  0  0  0  0  0  0  0
    8.7910    1.1980   21.1250 O   0  0  0  0  0  0  0  0  0  0  0  0
    8.9600   -0.7650   22.4040 C   0  0  0  0  0  0  0  0  0  0  0  0
   10.2690   -0.4560   22.6830 C   0  0  0  0  0  0  0  0  0  0  0  0
   10.6640    0.8590   22.8680 C   0  0  0  0  0  0  0  0  0  0  0  0
   11.1800   -1.4730   22.7780 C   0  0  0  0  0  0  0  0  0  0  0  0
   11.9900    1.1390   23.1420 C   0  0  0  0  0  0  0  0  0  0  0  0
   12.4770   -1.1880   23.0630 C   0  0  0  0  0  0  0  0  0  0  0  0
   12.8990    0.1110   23.2400 C   0  0  0  0  0  0  0  0  0  0  0  0
   13.5070   -2.5230   23.1960 Cl  0  0  0  0  0  0  0  0  0  0  0  0
  1  2  1  0
  2  3  2  0
  2  4  1  0
  3  5  1  0
  4  6  2  0
  4  7  1  0
  5  8  2  0
  6  8  1  0
  6  9  1  0
  7 10  1  0
 10 11  2  0
 10 12  1  0
 12 13  1  0
 13 14  2  0
 13 15  1  0
 14 16  1  0
 15 17  2  0
 16 18  2  0
 17 18  1  0
 17 19  1  0
M  END
>  <minimized2hits_rmsd>  (78) 
0.769911

>  <reference2hits_rmsd>  (78) 
0.457939

>  <reference2minimized_rmsd>  (78) 
0.808337

>  <smiles>  (78) 
Cc1ccnc(N)c1NC(=O)Cc1cccc(Cl)c1

>  <error>  (78) 


>  <mode>  (78) 
expansion

>  <∆∆G>  (78) 
-5.34255

>  <∆G_bound>  (78) 
-4.716219

>  <∆G_unbound>  (78) 
0.626331

>  <comRMSD>  (78) 
0.769911

>  <N_constrained_atoms>  (78) 
16

>  <N_unconstrained_atoms>  (78) 
3

>  <runtime>  (78) 
55.167207

>  <regarded>  (78) 
['x0434']

>  <disregarded>  (78) 
[]

>  <rdock>  (78) 
4.799308

>  <n_inspirations>  (78) 
1

>  <crystal_code>  (78) 
x10494

>  <fraction_overlapping>  (78) 
0.789474

>  <rdock_free>  (78) 
5.970614

>  <rdock_free_top10>  (78) 
2.093042

>  <rdock_pharm>  (78) 
1.798457

>  <rdock_pharm_top10>  (78) 
1.798457

>  <old_RMSD>  (78) 
1.635465

>  <filtered_reference2minimized_rmsd>  (78) 
nan

>  <based_on_x0434>  (78) 
True

>  <overlap_%>  (78) 
78.947368

$$$$
EDG-MED-0da5ad92-21
     RDKit          3D

 17 18  0  0  0  0  0  0  0  0999 V2000
    4.1180    1.4060   20.2790 C   0  0  0  0  0  0  0  0  0  0  0  0
    5.1120    0.9490   19.3960 C   0  0  0  0  0  0  0  0  0  0  0  0
    5.0640    1.0720   18.0370 N   0  0  0  0  0  0  0  0  0  0  0  0
    6.3980    0.2460   19.7460 C   0  0  0  0  0  0  0  0  0  0  0  0
    6.1510    0.5450   17.4360 N   0  0  0  0  0  0  0  0  0  0  0  0
    6.9010    0.0670   18.4810 C   0  0  0  0  0  0  0  0  0  0  0  0
    6.9490   -0.1340   20.9820 N   0  0  0  0  0  0  0  0  0  0  0  0
    8.2060    0.2100   21.4610 C   0  0  0  0  0  0  0  0  0  0  0  0
    8.8490    1.2080   21.1150 O   0  0  0  0  0  0  0  0  0  0  0  0
    8.6660   -0.8070   22.4630 C   0  0  0  0  0  0  0  0  0  0  0  0
   10.1230   -0.4860   22.7140 C   0  0  0  0  0  0  0  0  0  0  0  0
   10.5820    0.9150   22.8540 C   0  0  0  0  0  0  0  0  0  0  0  0
   11.0820   -1.4630   22.8290 C   0  0  0  0  0  0  0  0  0  0  0  0
   11.9080    1.2170   23.0790 C   0  0  0  0  0  0  0  0  0  0  0  0
   12.4040   -1.1130   23.0670 C   0  0  0  0  0  0  0  0  0  0  0  0
   12.8440    0.2140   23.1890 C   0  0  0  0  0  0  0  0  0  0  0  0
   13.4760   -2.4200   23.2140 Cl  0  0  0  0  0  0  0  0  0  0  0  0
  1  2  1  0
  2  3  1  0
  2  4  2  0
  3  5  1  0
  4  6  1  0
  5  6  2  0
  4  7  1  0
  7  8  1  0
  8  9  2  0
  8 10  1  0
 10 11  1  0
 11 12  2  0
 11 13  1  0
 12 14  1  0
 13 15  2  0
 14 16  2  0
 15 16  1  0
 15 17  1  0
M  END
>  <minimized2hits_rmsd>  (79) 
0.824366

>  <reference2hits_rmsd>  (79) 
0.604473

>  <reference2minimized_rmsd>  (79) 
0.746139

>  <smiles>  (79) 
Cc1[nH]ncc1NC(=O)Cc1cccc(Cl)c1

>  <error>  (79) 


>  <mode>  (79) 
expansion

>  <∆∆G>  (79) 
-5.641175

>  <∆G_bound>  (79) 
-5.448468

>  <∆G_unbound>  (79) 
0.192707

>  <comRMSD>  (79) 
0.824366

>  <N_constrained_atoms>  (79) 
16

>  <N_unconstrained_atoms>  (79) 
1

>  <runtime>  (79) 
29.537304

>  <regarded>  (79) 
['x0434']

>  <disregarded>  (79) 
[]

>  <rdock>  (79) 
5.399496

>  <n_inspirations>  (79) 
1

>  <crystal_code>  (79) 
x11025

>  <fraction_overlapping>  (79) 
0.941176

>  <rdock_free>  (79) 
2.647545

>  <rdock_free_top10>  (79) 
2.647545

>  <rdock_pharm>  (79) 
2.335062

>  <rdock_pharm_top10>  (79) 
2.324661

>  <old_RMSD>  (79) 
1.765428

>  <filtered_reference2minimized_rmsd>  (79) 
0.746139

>  <based_on_x0434>  (79) 
True

>  <overlap_%>  (79) 
94.117647

$$$$
BRU-LEF-c49414a7-1
     RDKit          3D

 23 25  0  0  0  0  0  0  0  0999 V2000
    4.3990    0.5250   21.5630 C   0  0  0  0  0  0  0  0  0  0  0  0
    5.0660    0.5470   20.3020 C   0  0  0  0  0  0  0  0  0  0  0  0
    4.4850    1.2020   19.2170 C   0  0  0  0  0  0  0  0  0  0  0  0
    6.3080   -0.0840   20.1360 C   0  0  0  0  0  0  0  0  0  0  0  0
    5.1540    1.2090   17.9980 C   0  0  0  0  0  0  0  0  0  0  0  0
    6.8740   -0.0250   18.8880 C   0  0  0  0  0  0  0  0  0  0  0  0
    6.9700   -0.7280   21.1120 N   0  0  0  0  0  0  0  0  0  0  0  0
    6.3290    0.6050   17.8140 N   0  0  0  0  0  0  0  0  0  0  0  0
    8.2730   -0.3780   21.5100 C   0  0  0  0  0  0  0  0  0  0  0  0
    8.7410    0.7210   21.2280 O   0  0  0  0  0  0  0  0  0  0  0  0
    9.1600   -1.2840   22.2950 C   0  0  0  0  0  0  0  0  0  0  0  0
   10.3880   -0.6910   22.5770 C   0  0  0  0  0  0  0  0  0  0  0  0
   11.5800   -1.3640   22.3340 C   0  0  0  0  0  0  0  0  0  0  0  0
   10.4250    0.6290   23.1100 C   0  0  0  0  0  0  0  0  0  0  0  0
   12.7830   -0.7360   22.6080 C   0  0  0  0  0  0  0  0  0  0  0  0
   11.6350    1.2470   23.3700 C   0  0  0  0  0  0  0  0  0  0  0  0
   12.8130    0.5570   23.1160 C   0  0  0  0  0  0  0  0  0  0  0  0
   11.5110    2.5290   23.8550 O   0  0  0  0  0  0  0  0  0  0  0  0
   11.2030    3.6010   22.9280 C   0  0  2  0  0  0  0  0  0  0  0  0
   12.2460    4.0700   22.1450 C   0  0  0  0  0  0  0  0  0  0  0  0
   11.1820    4.7120   23.4550 N   0  0  0  0  0  0  0  0  0  0  0  0
   12.2230    5.3160   22.5770 C   0  0  0  0  0  0  0  0  0  0  0  0
   12.7120    6.4070   22.4190 O   0  0  0  0  0  0  0  0  0  0  0  0
  1  2  1  0
  2  3  2  0
  2  4  1  0
  3  5  1  0
  4  6  2  0
  4  7  1  0
  5  8  2  0
  6  8  1  0
  7  9  1  0
  9 10  2  0
  9 11  1  0
 11 12  1  0
 12 13  2  0
 12 14  1  0
 13 15  1  0
 14 16  2  0
 15 17  2  0
 16 17  1  0
 16 18  1  0
 19 18  1  1
 19 20  1  0
 19 21  1  0
 20 22  1  0
 21 22  1  0
 22 23  2  0
M  END
>  <minimized2hits_rmsd>  (80) 
0.522538

>  <reference2hits_rmsd>  (80) 
0.668739

>  <reference2minimized_rmsd>  (80) 
0.826218

>  <smiles>  (80) 
Cc1ccncc1NC(=O)Cc1cccc(OC2CC(=O)N2)c1

>  <error>  (80) 


>  <mode>  (80) 
expansion

>  <∆∆G>  (80) 
-9.602434

>  <∆G_bound>  (80) 
-9.186075

>  <∆G_unbound>  (80) 
0.416358

>  <comRMSD>  (80) 
0.522538

>  <N_constrained_atoms>  (80) 
16

>  <N_unconstrained_atoms>  (80) 
7

>  <runtime>  (80) 
111.324617

>  <regarded>  (80) 
['x0434']

>  <disregarded>  (80) 
['x0107']

>  <rdock>  (80) 
7.005073

>  <n_inspirations>  (80) 
1

>  <crystal_code>  (80) 
x10756

>  <fraction_overlapping>  (80) 
0.652174

>  <rdock_free>  (80) 
1.357303

>  <rdock_free_top10>  (80) 
1.357303

>  <rdock_pharm>  (80) 
1.298909

>  <rdock_pharm_top10>  (80) 
1.298909

>  <old_RMSD>  (80) 
2.11268

>  <filtered_reference2minimized_rmsd>  (80) 
nan

>  <based_on_x0434>  (80) 
True

>  <overlap_%>  (80) 
65.217391

$$$$
EDJ-MED-49816e9b-1
     RDKit          3D

 18 19  0  0  0  0  0  0  0  0999 V2000
    4.3320    0.7840   21.4360 C   0  0  0  0  0  0  0  0  0  0  0  0
    5.0740    0.7330   20.1360 C   0  0  0  0  0  0  0  0  0  0  0  0
    4.5350    1.3980   19.0350 C   0  0  0  0  0  0  0  0  0  0  0  0
    6.2870    0.0510   19.9720 C   0  0  0  0  0  0  0  0  0  0  0  0
    5.2130    1.3560   17.8350 C   0  0  0  0  0  0  0  0  0  0  0  0
    6.8760    0.0630   18.7270 C   0  0  0  0  0  0  0  0  0  0  0  0
    7.0000   -0.6910   21.0550 C   0  0  0  0  0  0  0  0  0  0  0  0
    6.3690    0.6980   17.6690 N   0  0  0  0  0  0  0  0  0  0  0  0
    8.1670    0.1230   21.5730 C   0  0  0  0  0  0  0  0  0  0  0  0
    8.5260    1.1850   21.0260 O   0  0  0  0  0  0  0  0  0  0  0  0
    8.7550   -0.4390   22.6740 N   0  0  0  0  0  0  0  0  0  0  0  0
   10.1070   -0.2960   22.9020 C   0  0  0  0  0  0  0  0  0  0  0  0
   10.6710    0.6510   23.7400 C   0  0  0  0  0  0  0  0  0  0  0  0
   10.9070   -1.1760   22.2150 C   0  0  0  0  0  0  0  0  0  0  0  0
   12.0480    0.7010   23.8700 C   0  0  0  0  0  0  0  0  0  0  0  0
   12.2620   -1.1180   22.3530 C   0  0  0  0  0  0  0  0  0  0  0  0
   12.8560   -0.1820   23.1780 C   0  0  0  0  0  0  0  0  0  0  0  0
   13.1260   -2.2600   21.4450 Cl  0  0  0  0  0  0  0  0  0  0  0  0
  1  2  1  0
  2  3  2  0
  2  4  1  0
  3  5  1  0
  4  6  2  0
  4  7  1  0
  5  8  2  0
  6  8  1  0
  7  9  1  0
  9 10  2  0
  9 11  1  0
 11 12  1  0
 12 13  2  0
 12 14  1  0
 13 15  1  0
 14 16  2  0
 15 17  2  0
 16 17  1  0
 16 18  1  0
M  END
>  <minimized2hits_rmsd>  (81) 
0.582454

>  <reference2hits_rmsd>  (81) 
0.66926

>  <reference2minimized_rmsd>  (81) 
0.601906

>  <smiles>  (81) 
Cc1ccncc1CC(=O)Nc1cccc(Cl)c1

>  <error>  (81) 


>  <mode>  (81) 
expansion

>  <∆∆G>  (81) 
-8.393677

>  <∆G_bound>  (81) 
0.477265

>  <∆G_unbound>  (81) 
0.477265

>  <comRMSD>  (81) 
0.582454

>  <N_constrained_atoms>  (81) 
16

>  <N_unconstrained_atoms>  (81) 
2

>  <runtime>  (81) 
40.876923

>  <regarded>  (81) 
['x0434']

>  <disregarded>  (81) 
[]

>  <rdock>  (81) 
2.303678

>  <n_inspirations>  (81) 
1

>  <crystal_code>  (81) 
x11011

>  <fraction_overlapping>  (81) 
0.888889

>  <rdock_free>  (81) 
6.580948

>  <rdock_free_top10>  (81) 
6.514627

>  <rdock_pharm>  (81) 
1.850665

>  <rdock_pharm_top10>  (81) 
0.690349

>  <old_RMSD>  (81) 
7.102938

>  <filtered_reference2minimized_rmsd>  (81) 
0.582454

>  <based_on_x0434>  (81) 
True

>  <overlap_%>  (81) 
88.888889

$$$$
EDJ-MED-49816e9b-2
     RDKit          3D

 19 20  0  0  0  0  0  0  0  0999 V2000
    5.2850    2.0560   21.6380 C   0  0  0  0  0  0  0  0  0  0  0  0
    5.5530    1.4910   20.3620 C   0  0  0  0  0  0  0  0  0  0  0  0
    4.9470    2.0530   19.2500 C   0  0  0  0  0  0  0  0  0  0  0  0
    6.4020    0.3930   20.1680 C   0  0  0  0  0  0  0  0  0  0  0  0
    5.1990    1.5230   17.9940 C   0  0  0  0  0  0  0  0  0  0  0  0
    6.5910   -0.0780   18.8710 C   0  0  0  0  0  0  0  0  0  0  0  0
    7.0820   -0.2700   21.2260 N   0  0  0  0  0  0  0  0  0  0  0  0
    6.0010    0.4810   17.7800 N   0  0  0  0  0  0  0  0  0  0  0  0
    7.4650   -1.2350   18.7050 C   0  0  0  0  0  0  0  0  0  0  0  0
    8.3400    0.2270   21.7130 C   0  0  0  0  0  0  0  0  0  0  0  0
    8.9280    1.2580   21.3230 O   0  0  0  0  0  0  0  0  0  0  0  0
    8.8270   -0.6520   22.7080 C   0  0  0  0  0  0  0  0  0  0  0  0
   10.1810   -0.5650   22.8580 C   0  0  0  0  0  0  0  0  0  0  0  0
   11.0580   -1.6300   23.0020 C   0  0  0  0  0  0  0  0  0  0  0  0
   10.7560    0.8140   22.8530 C   0  0  0  0  0  0  0  0  0  0  0  0
   12.4320   -1.4420   23.1370 C   0  0  0  0  0  0  0  0  0  0  0  0
   12.2190    0.9860   22.9860 C   0  0  0  0  0  0  0  0  0  0  0  0
   12.9950   -0.1650   23.1260 C   0  0  0  0  0  0  0  0  0  0  0  0
   12.7380    2.6130   22.9250 Cl  0  0  0  0  0  0  0  0  0  0  0  0
  1  2  1  0
  2  3  2  0
  2  4  1  0
  3  5  1  0
  4  6  2  0
  4  7  1  0
  5  8  2  0
  6  8  1  0
  6  9  1  0
  7 10  1  0
 10 11  2  0
 10 12  1  0
 12 13  1  0
 13 14  2  0
 13 15  1  0
 14 16  1  0
 15 17  2  0
 16 18  2  0
 17 18  1  0
 17 19  1  0
M  END
>  <minimized2hits_rmsd>  (82) 
0.993042

>  <reference2hits_rmsd>  (82) 
1.320182

>  <reference2minimized_rmsd>  (82) 
1.579008

>  <smiles>  (82) 
Cc1ccnc(C)c1NC(=O)Cc1cccc(Cl)c1

>  <error>  (82) 


>  <mode>  (82) 
expansion

>  <∆∆G>  (82) 
-5.854084

>  <∆G_bound>  (82) 
-6.313457

>  <∆G_unbound>  (82) 
-0.459373

>  <comRMSD>  (82) 
0.993042

>  <N_constrained_atoms>  (82) 
17

>  <N_unconstrained_atoms>  (82) 
3

>  <runtime>  (82) 
35.925938

>  <regarded>  (82) 
['x0678', 'x0434']

>  <disregarded>  (82) 
[]

>  <rdock>  (82) 
4.092386

>  <n_inspirations>  (82) 
2

>  <crystal_code>  (82) 
x10334

>  <fraction_overlapping>  (82) 
0.842105

>  <rdock_free>  (82) 
6.765267

>  <rdock_free_top10>  (82) 
3.235617

>  <rdock_pharm>  (82) 
2.299246

>  <rdock_pharm_top10>  (82) 
2.094268

>  <old_RMSD>  (82) 
0.848334

>  <filtered_reference2minimized_rmsd>  (82) 
1.579008

>  <based_on_x0434>  (82) 
True

>  <overlap_%>  (82) 
84.210526

$$$$
RAL-MED-2de63afb-1
     RDKit          3D

 22 24  0  0  0  0  0  0  0  0999 V2000
    5.4300   -4.1830   19.6070 O   0  0  0  0  0  0  0  0  0  0  0  0
    6.4000   -4.1570   20.3350 C   0  0  0  0  0  0  0  0  0  0  0  0
    6.5370   -5.2430   21.2550 C   0  0  0  0  0  0  0  0  0  0  0  0
    7.3890   -3.1580   20.2780 N   0  0  0  0  0  0  0  0  0  0  0  0
    6.3650   -4.9780   22.5370 C   0  0  0  0  0  0  0  0  0  0  0  0
    8.1990   -2.4410   21.2530 C   0  0  0  0  0  0  0  0  0  0  0  0
    7.1890   -3.9830   23.0090 C   0  0  0  0  0  0  0  0  0  0  0  0
    5.4400   -5.6280   23.3610 C   0  0  0  0  0  0  0  0  0  0  0  0
    8.6390   -3.1630   22.3560 C   0  0  0  0  0  0  0  0  0  0  0  0
    8.5310   -1.0990   21.0870 C   0  0  0  0  0  0  0  0  0  0  0  0
    7.1120   -3.6110   24.3000 C   0  0  0  0  0  0  0  0  0  0  0  0
    5.2930   -5.3030   24.7300 N   0  0  0  0  0  0  0  0  0  0  0  0
    9.4400   -2.5280   23.3120 C   0  0  0  0  0  0  0  0  0  0  0  0
    9.3300   -0.4670   22.0340 C   0  0  0  0  0  0  0  0  0  0  0  0
    6.1290   -4.2990   25.1730 C   0  0  0  0  0  0  0  0  0  0  0  0
    9.7830   -1.1900   23.1460 C   0  0  0  0  0  0  0  0  0  0  0  0
    9.5920    0.7210   21.8130 O   0  0  0  0  0  0  0  0  0  0  0  0
   10.2640    1.4740   22.8340 C   0  0  1  0  0  0  0  0  0  0  0  0
   11.7590    1.4250   22.9010 C   0  0  0  0  0  0  0  0  0  0  0  0
   10.2490    2.9530   22.5980 N   0  0  0  0  0  0  0  0  0  0  0  0
   11.5430    2.6350   22.7400 C   0  0  0  0  0  0  0  0  0  0  0  0
   12.3590    3.5170   22.7110 O   0  0  0  0  0  0  0  0  0  0  0  0
  1  2  2  0
  2  3  1  0
  2  4  1  0
  3  5  1  0
  4  6  1  0
  5  7  2  0
  5  8  1  0
  6  9  2  0
  6 10  1  0
  7 11  1  0
  8 12  2  0
  9 13  1  0
 10 14  2  0
 11 15  2  0
 12 15  1  0
 13 16  2  0
 14 16  1  0
 14 17  1  0
 18 17  1  6
 18 19  1  0
 18 20  1  0
 19 21  1  0
 20 21  1  0
 21 22  2  0
M  END
>  <minimized2hits_rmsd>  (83) 
1.131622

>  <reference2hits_rmsd>  (83) 
6.779524

>  <reference2minimized_rmsd>  (83) 
5.354545

>  <smiles>  (83) 
O=C(Cc1cccnc1)Nc1cccc(OC2CC(=O)N2)c1

>  <error>  (83) 


>  <mode>  (83) 
expansion

>  <∆∆G>  (83) 
-3.218527

>  <∆G_bound>  (83) 
-2.774745

>  <∆G_unbound>  (83) 
0.443783

>  <comRMSD>  (83) 
1.131622

>  <N_constrained_atoms>  (83) 
9

>  <N_unconstrained_atoms>  (83) 
13

>  <runtime>  (83) 
760.634952

>  <regarded>  (83) 
['x1493']

>  <disregarded>  (83) 
[]

>  <rdock>  (83) 
12.039486

>  <n_inspirations>  (83) 
1

>  <crystal_code>  (83) 
x10371

>  <fraction_overlapping>  (83) 
0.0

>  <rdock_free>  (83) 
7.609347

>  <rdock_free_top10>  (83) 
4.328985

>  <rdock_pharm>  (83) 
nan

>  <rdock_pharm_top10>  (83) 
nan

>  <old_RMSD>  (83) 
10.678393

>  <filtered_reference2minimized_rmsd>  (83) 
nan

>  <based_on_x0434>  (83) 
False

>  <overlap_%>  (83) 
0.0

$$$$
RAL-MED-2de63afb-2
     RDKit          3D

 23 25  0  0  0  0  0  0  0  0999 V2000
    3.2130   -7.3760   27.0260 C   0  0  0  0  0  0  0  0  0  0  0  0
    3.5190   -7.0480   25.6720 C   0  0  0  0  0  0  0  0  0  0  0  0
    4.7570   -6.4790   25.3860 C   0  0  0  0  0  0  0  0  0  0  0  0
    2.5730   -7.3070   24.6710 C   0  0  0  0  0  0  0  0  0  0  0  0
    5.1130   -6.1470   24.0700 C   0  0  0  0  0  0  0  0  0  0  0  0
    2.8480   -7.0000   23.3400 C   0  0  0  0  0  0  0  0  0  0  0  0
    6.2920   -5.6080   23.6900 N   0  0  0  0  0  0  0  0  0  0  0  0
    4.0780   -6.4350   23.0110 C   0  0  0  0  0  0  0  0  0  0  0  0
    1.9770   -7.2500   22.4970 O   0  0  0  0  0  0  0  0  0  0  0  0
    6.2740   -4.5550   22.8500 C   0  0  0  0  0  0  0  0  0  0  0  0
    0.6180   -7.5240   22.8800 C   0  0  2  0  0  0  0  0  0  0  0  0
    5.4130   -4.4120   21.9860 O   0  0  0  0  0  0  0  0  0  0  0  0
    7.3630   -3.5320   22.9980 C   0  0  0  0  0  0  0  0  0  0  0  0
   -0.2210   -7.8220   21.8320 C   0  0  0  0  0  0  0  0  0  0  0  0
   -0.0920   -6.5280   23.0300 N   0  0  0  0  0  0  0  0  0  0  0  0
    6.6960   -2.1840   23.1150 C   0  0  0  0  0  0  0  0  0  0  0  0
   -0.9390   -6.7210   21.9460 C   0  0  0  0  0  0  0  0  0  0  0  0
    5.9150   -1.9010   24.3540 C   0  0  0  0  0  0  0  0  0  0  0  0
    6.7500   -1.1870   22.1670 C   0  0  0  0  0  0  0  0  0  0  0  0
   -1.8500   -6.1070   21.4500 O   0  0  0  0  0  0  0  0  0  0  0  0
    5.3330   -0.6590   24.4050 N   0  0  0  0  0  0  0  0  0  0  0  0
    6.1430    0.0260   22.2860 N   0  0  0  0  0  0  0  0  0  0  0  0
    5.4210    0.3280   23.4010 C   0  0  0  0  0  0  0  0  0  0  0  0
  1  2  1  0
  2  3  2  0
  2  4  1  0
  3  5  1  0
  4  6  2  0
  5  7  1  0
  5  8  2  0
  6  8  1  0
  6  9  1  0
  7 10  1  0
 11  9  1  6
 10 12  2  0
 10 13  1  0
 11 14  1  0
 11 15  1  0
 13 16  1  0
 14 17  1  0
 15 17  1  0
 16 18  2  0
 16 19  1  0
 17 20  2  0
 18 21  1  0
 19 22  2  0
 21 23  2  0
 22 23  1  0
M  END
>  <minimized2hits_rmsd>  (84) 
3.964154

>  <reference2hits_rmsd>  (84) 
6.551964

>  <reference2minimized_rmsd>  (84) 
11.386391

>  <smiles>  (84) 
Cc1cc(NC(=O)Cc2cncnc2)cc(OC2CC(=O)N2)c1

>  <error>  (84) 


>  <mode>  (84) 
expansion

>  <∆∆G>  (84) 
-4.15211

>  <∆G_bound>  (84) 
-3.510429

>  <∆G_unbound>  (84) 
0.641681

>  <comRMSD>  (84) 
3.964154

>  <N_constrained_atoms>  (84) 
9

>  <N_unconstrained_atoms>  (84) 
14

>  <runtime>  (84) 
242.036164

>  <regarded>  (84) 
['x1493']

>  <disregarded>  (84) 
[]

>  <rdock>  (84) 
11.794519

>  <n_inspirations>  (84) 
1

>  <crystal_code>  (84) 
x10322

>  <fraction_overlapping>  (84) 
0.0

>  <rdock_free>  (84) 
7.448083

>  <rdock_free_top10>  (84) 
4.117076

>  <rdock_pharm>  (84) 
nan

>  <rdock_pharm_top10>  (84) 
nan

>  <old_RMSD>  (84) 
13.231786

>  <filtered_reference2minimized_rmsd>  (84) 
nan

>  <based_on_x0434>  (84) 
False

>  <overlap_%>  (84) 
0.0

$$$$
RAL-MED-2de63afb-14
     RDKit          3D

 23 25  0  0  0  0  0  0  0  0999 V2000
    7.2310    0.5950   18.3870 O   0  0  0  0  0  0  0  0  0  0  0  0
    7.2620   -0.2320   17.4840 C   0  0  0  0  0  0  0  0  0  0  0  0
    7.1810   -1.6330   17.8040 C   0  0  0  0  0  0  0  0  0  0  0  0
    7.3520    0.0760   16.1150 N   0  0  0  0  0  0  0  0  0  0  0  0
    6.7690   -2.0770   19.0760 C   0  0  0  0  0  0  0  0  0  0  0  0
    8.4370    0.0150   15.1860 C   0  0  0  0  0  0  0  0  0  0  0  0
    7.5280   -1.8410   20.2230 C   0  0  0  0  0  0  0  0  0  0  0  0
    5.6010   -2.7850   19.3290 C   0  0  0  0  0  0  0  0  0  0  0  0
    8.4870    0.5370   13.9710 C   0  0  0  0  0  0  0  0  0  0  0  0
    9.5300   -0.5390   15.2840 C   0  0  0  0  0  0  0  0  0  0  0  0
    7.1850   -2.2510   21.4640 N   0  0  0  0  0  0  0  0  0  0  0  0
    5.2070   -3.2300   20.5600 N   0  0  0  0  0  0  0  0  0  0  0  0
    9.5100    0.5010   13.0100 C   0  0  0  0  0  0  0  0  0  0  0  0
   10.6320   -0.5390   14.2480 C   0  0  0  0  0  0  0  0  0  0  0  0
    6.0300   -2.9350   21.5890 C   0  0  0  0  0  0  0  0  0  0  0  0
    9.4560    1.0730   11.8640 F   0  0  0  0  0  0  0  0  0  0  0  0
   10.5360    0.0010   13.1670 C   0  0  0  0  0  0  0  0  0  0  0  0
   12.4380   -1.4890   14.3310 O   0  0  0  0  0  0  0  0  0  0  0  0
   13.6870   -3.2560   14.8460 C   0  0  1  0  0  0  0  0  0  0  0  0
   14.9470   -3.7210   15.4020 C   0  0  0  0  0  0  0  0  0  0  0  0
   13.3030   -4.7840   15.0000 N   0  0  0  0  0  0  0  0  0  0  0  0
   14.4120   -4.8190   15.4590 C   0  0  0  0  0  0  0  0  0  0  0  0
   14.8560   -5.8450   15.9190 O   0  0  0  0  0  0  0  0  0  0  0  0
  1  2  2  0
  2  3  1  0
  2  4  1  0
  3  5  1  0
  4  6  1  0
  5  7  2  0
  5  8  1  0
  6  9  2  0
  6 10  1  0
  7 11  1  0
  8 12  2  0
  9 13  1  0
 10 14  2  0
 11 15  2  0
 12 15  1  0
 13 16  1  0
 13 17  2  0
 14 17  1  0
 14 18  1  0
 19 18  1  1
 19 20  1  0
 19 21  1  0
 20 22  1  0
 21 22  1  0
 22 23  2  0
M  END
>  <minimized2hits_rmsd>  (85) 
4.498947

>  <reference2hits_rmsd>  (85) 
6.685857

>  <reference2minimized_rmsd>  (85) 
8.424751

>  <smiles>  (85) 
O=C(Cc1cncnc1)Nc1cc(F)cc(OC2CC(=O)N2)c1

>  <error>  (85) 


>  <mode>  (85) 
expansion

>  <∆∆G>  (85) 
93.677602

>  <∆G_bound>  (85) 
94.361577

>  <∆G_unbound>  (85) 
0.683975

>  <comRMSD>  (85) 
4.498947

>  <N_constrained_atoms>  (85) 
9

>  <N_unconstrained_atoms>  (85) 
14

>  <runtime>  (85) 
364.511334

>  <regarded>  (85) 
['x1493']

>  <disregarded>  (85) 
[]

>  <rdock>  (85) 
11.755866

>  <n_inspirations>  (85) 
1

>  <crystal_code>  (85) 
x10387

>  <fraction_overlapping>  (85) 
0.0

>  <rdock_free>  (85) 
8.03292

>  <rdock_free_top10>  (85) 
5.838656

>  <rdock_pharm>  (85) 
nan

>  <rdock_pharm_top10>  (85) 
nan

>  <old_RMSD>  (85) 
10.774647

>  <filtered_reference2minimized_rmsd>  (85) 
nan

>  <based_on_x0434>  (85) 
False

>  <overlap_%>  (85) 
0.0

$$$$
NAU-LAT-445f63e5-6
     RDKit          3D

 23 25  0  0  0  0  0  0  0  0999 V2000
    8.9230    1.0650   21.3700 O   0  0  0  0  0  0  0  0  0  0  0  0
    8.5790   -0.1070   21.4400 C   0  0  0  0  0  0  0  0  0  0  0  0
    7.3060   -0.5420   21.0980 N   0  0  0  0  0  0  0  0  0  0  0  0
    9.3960   -1.1450   21.8530 N   0  0  0  0  0  0  0  0  0  0  0  0
    6.4960    0.0750   20.1300 C   0  0  0  0  0  0  0  0  0  0  0  0
   10.4220   -1.0850   22.8210 C   0  0  0  0  0  0  0  0  0  0  0  0
    5.3220    0.7760   20.3770 C   0  0  0  0  0  0  0  0  0  0  0  0
    6.9070   -0.0130   18.8150 C   0  0  0  0  0  0  0  0  0  0  0  0
   10.0560   -1.9330   24.0050 C   0  0  0  0  0  0  0  0  0  0  0  0
   11.6920   -1.4140   22.2930 C   0  0  0  0  0  0  0  0  0  0  0  0
   10.4840    0.3910   23.2660 C   0  0  0  0  0  0  0  0  0  0  0  0
    4.6270    1.3570   19.3130 C   0  0  0  0  0  0  0  0  0  0  0  0
    6.2650    0.5350   17.7720 N   0  0  0  0  0  0  0  0  0  0  0  0
    9.2490   -3.0360   23.6710 C   0  0  0  0  0  0  0  0  0  0  0  0
   12.6210   -0.3980   22.5540 C   0  0  0  0  0  0  0  0  0  0  0  0
   11.4130    0.5240   24.2820 C   0  0  0  0  0  0  0  0  0  0  0  0
    5.1420    1.2110   18.0420 C   0  0  0  0  0  0  0  0  0  0  0  0
    7.9530   -2.8560   23.1820 C   0  0  0  0  0  0  0  0  0  0  0  0
    9.7370   -4.3400   23.8310 C   0  0  0  0  0  0  0  0  0  0  0  0
   12.6070   -0.1570   23.9420 O   0  0  0  0  0  0  0  0  0  0  0  0
    7.1710   -3.9620   22.8650 C   0  0  0  0  0  0  0  0  0  0  0  0
    8.9430   -5.4370   23.5130 C   0  0  0  0  0  0  0  0  0  0  0  0
    7.6580   -5.2560   23.0290 C   0  0  0  0  0  0  0  0  0  0  0  0
  1  2  2  0
  2  3  1  0
  2  4  1  0
  3  5  1  0
  6  4  1  0
  5  7  2  0
  5  8  1  0
  6  9  1  0
  6 10  1  0
  6 11  1  0
  7 12  1  0
  8 13  2  0
  9 14  1  0
 10 15  1  0
 11 16  1  0
 12 17  2  0
 13 17  1  0
 14 18  2  0
 14 19  1  0
 15 20  1  0
 16 20  1  0
 18 21  1  0
 19 22  2  0
 21 23  2  0
 22 23  1  0
M  END
>  <minimized2hits_rmsd>  (86) 
0.477932

>  <reference2hits_rmsd>  (86) 
2.57895

>  <reference2minimized_rmsd>  (86) 
3.416787

>  <smiles>  (86) 
O=C(Nc1cccnc1)NC1(Cc2ccccc2)CCOCC1

>  <error>  (86) 


>  <mode>  (86) 
expansion

>  <∆∆G>  (86) 
-8.275406

>  <∆G_bound>  (86) 
-6.953257

>  <∆G_unbound>  (86) 
1.322149

>  <comRMSD>  (86) 
0.477932

>  <N_constrained_atoms>  (86) 
16

>  <N_unconstrained_atoms>  (86) 
7

>  <runtime>  (86) 
80.928079

>  <regarded>  (86) 
['x0434']

>  <disregarded>  (86) 
[]

>  <rdock>  (86) 
5.745815

>  <n_inspirations>  (86) 
1

>  <crystal_code>  (86) 
x10800

>  <fraction_overlapping>  (86) 
0.608696

>  <rdock_free>  (86) 
1.638671

>  <rdock_free_top10>  (86) 
1.599075

>  <rdock_pharm>  (86) 
1.662107

>  <rdock_pharm_top10>  (86) 
1.662107

>  <old_RMSD>  (86) 
3.221467

>  <filtered_reference2minimized_rmsd>  (86) 
nan

>  <based_on_x0434>  (86) 
True

>  <overlap_%>  (86) 
60.869565

$$$$
MIC-UNK-deda7a44-5
     RDKit          3D

 21 24  0  0  0  0  0  0  0  0999 V2000
    8.6110    0.7490   21.0500 O   0  0  0  0  0  0  0  0  0  0  0  0
    8.2000   -0.3320   21.4450 C   0  0  0  0  0  0  0  0  0  0  0  0
    7.0120   -0.9140   21.0130 N   0  0  0  0  0  0  0  0  0  0  0  0
    9.0310   -1.0450   22.5190 C   0  0  1  0  0  0  0  0  0  0  0  0
    5.8090   -0.1770   20.8040 C   0  0  0  0  0  0  0  0  0  0  0  0
    9.6930   -2.3590   22.1480 C   0  0  0  0  0  0  0  0  0  0  0  0
   10.2550   -0.2830   22.7130 C   0  0  0  0  0  0  0  0  0  0  0  0
    4.9300    0.2870   21.6970 N   0  0  0  0  0  0  0  0  0  0  0  0
    5.2940    0.2370   19.6150 N   0  0  0  0  0  0  0  0  0  0  0  0
   10.8990   -2.4260   22.5040 O   0  0  0  0  0  0  0  0  0  0  0  0
   11.3120   -1.1330   22.6840 C   0  0  0  0  0  0  0  0  0  0  0  0
   10.4440    1.0570   22.8860 C   0  0  0  0  0  0  0  0  0  0  0  0
    3.9350    0.9520   21.0590 N   0  0  0  0  0  0  0  0  0  0  0  0
    4.1610    0.9110   19.8050 C   0  0  0  0  0  0  0  0  0  0  0  0
    5.7940    0.0820   18.3340 C   0  0  0  0  0  0  0  0  0  0  0  0
   12.6230   -0.6810   22.8270 C   0  0  0  0  0  0  0  0  0  0  0  0
   11.7160    1.5520   23.0150 C   0  0  0  0  0  0  0  0  0  0  0  0
    5.9050    1.1660   17.6420 C   0  0  0  0  0  0  0  0  0  0  0  0
    7.1290    0.9680   18.2530 C   0  0  0  0  0  0  0  0  0  0  0  0
   12.8200    0.6850   22.9930 C   0  0  0  0  0  0  0  0  0  0  0  0
   11.8660    3.2580   23.1670 Cl  0  0  0  0  0  0  0  0  0  0  0  0
  1  2  2  0
  2  3  1  0
  4  2  1  6
  3  5  1  0
  4  6  1  0
  4  7  1  0
  5  8  2  0
  5  9  1  0
  6 10  1  0
  7 11  2  0
 10 11  1  0
  7 12  1  0
  8 13  1  0
  9 14  1  0
 13 14  2  0
  9 15  1  0
 11 16  1  0
 12 17  2  0
 15 18  1  0
 15 19  1  0
 18 19  1  0
 16 20  2  0
 17 20  1  0
 17 21  1  0
M  END
>  <minimized2hits_rmsd>  (87) 
1.155001

>  <reference2hits_rmsd>  (87) 
2.077137

>  <reference2minimized_rmsd>  (87) 
2.834102

>  <smiles>  (87) 
O=C(Nc1nncn1C1CC1)C1COc2ccc(Cl)cc21

>  <error>  (87) 


>  <mode>  (87) 
expansion

>  <∆∆G>  (87) 
-2.961149

>  <∆G_bound>  (87) 
-2.123062

>  <∆G_unbound>  (87) 
0.838087

>  <comRMSD>  (87) 
1.155001

>  <N_constrained_atoms>  (87) 
16

>  <N_unconstrained_atoms>  (87) 
5

>  <runtime>  (87) 
56.550301

>  <regarded>  (87) 
['x0434']

>  <disregarded>  (87) 
[]

>  <rdock>  (87) 
6.514597

>  <n_inspirations>  (87) 
1

>  <crystal_code>  (87) 
x11186

>  <fraction_overlapping>  (87) 
0.761905

>  <rdock_free>  (87) 
5.870192

>  <rdock_free_top10>  (87) 
4.506283

>  <rdock_pharm>  (87) 
2.062222

>  <rdock_pharm_top10>  (87) 
1.828576

>  <old_RMSD>  (87) 
2.513403

>  <filtered_reference2minimized_rmsd>  (87) 
nan

>  <based_on_x0434>  (87) 
True

>  <overlap_%>  (87) 
76.190476

$$$$
