x10178
     RDKit          3D

 18 19  0  0  0  0  0  0  0  0999 V2000
   13.8119   -3.6856   26.0587 N   0  0  0  0  0  0  0  0  0  0  0  0
   13.2962   -2.8765   25.4424 C   0  0  0  0  0  0  0  0  0  0  0  0
   12.6027   -1.8909   24.6570 C   0  0  0  0  0  0  0  0  0  0  0  0
   13.2277   -0.7228   24.2244 C   0  0  0  0  0  0  0  0  0  0  0  0
   12.6312    0.1816   23.4370 N   0  0  0  0  0  0  0  0  0  0  0  0
   11.3769   -0.0797   23.0327 C   0  0  0  0  0  0  0  0  0  0  0  0
   11.2983   -2.1320   24.2396 C   0  0  0  0  0  0  0  0  0  0  0  0
   10.6752   -1.2358   23.3851 C   0  0  0  0  0  0  0  0  0  0  0  0
    9.4435   -1.6469   22.8361 N   0  0  0  0  0  0  0  0  0  0  0  0
    8.5993   -0.8907   22.1097 C   0  0  0  0  0  0  0  0  0  0  0  0
    8.7094    0.3271   21.9965 O   0  0  0  0  0  0  0  0  0  0  0  0
    7.4886   -1.6609   21.4233 C   0  0  0  0  0  0  0  0  0  0  0  0
    6.9311   -0.9012   20.2414 C   0  0  0  0  0  0  0  0  0  0  0  0
    7.7685   -0.2392   19.3589 C   0  0  0  0  0  0  0  0  0  0  0  0
    7.3390    0.4581   18.3005 N   0  0  0  0  0  0  0  0  0  0  0  0
    6.0161    0.5125   18.0931 C   0  0  0  0  0  0  0  0  0  0  0  0
    5.0946   -0.1086   18.9151 C   0  0  0  0  0  0  0  0  0  0  0  0
    5.5671   -0.8273   19.9982 C   0  0  0  0  0  0  0  0  0  0  0  0
  2  1  3  0
  3  2  1  0
  4  3  2  0
  5  4  1  0
  6  5  2  0
  7  3  1  0
  8  7  2  0
  8  6  1  0
  8  9  1  0
 10  9  1  0
 11 10  2  0
 12 10  1  0
 13 12  1  0
 14 13  2  0
 15 14  1  0
 16 15  2  0
 17 16  1  0
 18 17  2  0
 18 13  1  0
M  END
>  <cid>  (1) 
DAR-DIA-23aa0b97-6

>  <score>  (1) 
105.024

$$$$
x2964
     RDKit          3D

 18 19  0  0  0  0  0  0  0  0999 V2000
    2.4412    2.0010   20.9560 Cl  0  0  0  0  0  0  0  0  0  0  0  0
    3.8195    1.7323   19.9356 C   0  0  0  0  0  0  0  0  0  0  0  0
    3.9054    2.4012   18.7286 C   0  0  0  0  0  0  0  0  0  0  0  0
    4.9722    2.1237   17.8877 C   0  0  0  0  0  0  0  0  0  0  0  0
    5.9558    1.2281   18.2742 C   0  0  0  0  0  0  0  0  0  0  0  0
    4.7847    0.8346   20.3422 C   0  0  0  0  0  0  0  0  0  0  0  0
    5.8851    0.6179   19.5213 C   0  0  0  0  0  0  0  0  0  0  0  0
    7.0227    0.0038   20.0872 N   0  0  0  0  0  0  0  0  0  0  0  0
    8.1044    0.6951   20.5584 C   0  0  0  0  0  0  0  0  0  0  0  0
    8.2244    1.9128   20.4470 O   0  0  0  0  0  0  0  0  0  0  0  0
    9.0242   -0.0920   21.1946 N   0  0  0  0  0  0  0  0  0  0  0  0
   10.1621    0.4062   21.8635 C   0  0  0  0  0  0  0  0  0  0  0  0
   11.2312   -0.4489   22.1204 C   0  0  0  0  0  0  0  0  0  0  0  0
   12.2843   -0.1133   22.8684 N   0  0  0  0  0  0  0  0  0  0  0  0
   12.3191    1.1193   23.3752 C   0  0  0  0  0  0  0  0  0  0  0  0
   10.2137    1.6865   22.4021 C   0  0  0  0  0  0  0  0  0  0  0  0
   11.3051    2.0692   23.1814 C   0  0  0  0  0  0  0  0  0  0  0  0
   11.3606    3.3195   23.7441 N   0  0  0  0  0  0  0  0  0  0  0  0
  2  1  1  0
  3  2  2  0
  4  3  1  0
  5  4  2  0
  6  2  1  0
  7  6  2  0
  7  5  1  0
  7  8  1  0
  9  8  1  0
 10  9  2  0
 11  9  1  0
 12 11  1  0
 13 12  2  0
 14 13  1  0
 15 14  2  0
 16 12  1  0
 17 16  2  0
 17 15  1  0
 18 17  1  0
M  END
>  <cid>  (2) 
DAR-DIA-23aa0b97-13

>  <score>  (2) 
240.716

$$$$
x10996
     RDKit          3D

 17 18  0  0  0  0  0  0  0  0999 V2000
   12.4734    2.3600   23.5778 C   0  0  0  0  0  0  0  0  0  0  0  0
    7.7920    0.1839   19.9808 N   0  0  0  0  0  0  0  0  0  0  0  0
   11.3236    2.9892   23.2974 N   0  0  0  0  0  0  0  0  0  0  0  0
    4.4201    2.0347   18.3912 C   0  0  0  0  0  0  0  0  0  0  0  0
    5.4550    0.6961   20.1140 C   0  0  0  0  0  0  0  0  0  0  0  0
    4.3871    1.4224   19.6273 C   0  0  0  0  0  0  0  0  0  0  0  0
   12.7243    1.0450   23.2356 C   0  0  0  0  0  0  0  0  0  0  0  0
    5.5430    1.8653   17.5930 C   0  0  0  0  0  0  0  0  0  0  0  0
    9.5800    0.3528   21.4055 N   0  0  0  0  0  0  0  0  0  0  0  0
   10.5490    0.9736   22.2337 C   0  0  0  0  0  0  0  0  0  0  0  0
    8.3991    2.2152   20.8228 O   0  0  0  0  0  0  0  0  0  0  0  0
    8.5754    1.0053   20.7433 C   0  0  0  0  0  0  0  0  0  0  0  0
   11.7423    0.3397   22.5587 C   0  0  0  0  0  0  0  0  0  0  0  0
    6.6044    0.5964   19.3362 C   0  0  0  0  0  0  0  0  0  0  0  0
   10.3857    2.2967   22.6418 C   0  0  0  0  0  0  0  0  0  0  0  0
    6.6305    1.1397   18.0571 C   0  0  0  0  0  0  0  0  0  0  0  0
    2.9525    1.5570   20.6022 Cl  0  0  0  0  0  0  0  0  0  0  0  0
  3  1  2  0
  6  5  1  0
  6  4  2  0
  7  1  1  0
  8  4  1  0
 10  9  1  0
 12 11  2  0
 12  9  1  0
 12  2  1  0
 13  7  2  0
 13 10  1  0
 14  2  1  0
 14  5  2  0
 15 10  2  0
 15  3  1  0
 16 14  1  0
 16  8  2  0
 17  6  1  0
M  END
>  <cid>  (3) 
DAR-DIA-23aa0b97-14

>  <score>  (3) 
256.681

$$$$
x2569
     RDKit          3D

 18 19  0  0  0  0  0  0  0  0999 V2000
   14.4357   -1.0620   19.6477 N   0  0  0  0  0  0  0  0  0  0  0  0
   13.7835   -1.0899   20.5841 C   0  0  0  0  0  0  0  0  0  0  0  0
   12.9276   -1.1300   21.7429 C   0  0  0  0  0  0  0  0  0  0  0  0
   13.3851   -0.7531   23.0061 C   0  0  0  0  0  0  0  0  0  0  0  0
   12.6150   -0.7704   24.1005 N   0  0  0  0  0  0  0  0  0  0  0  0
   11.3431   -1.1718   23.9516 C   0  0  0  0  0  0  0  0  0  0  0  0
   11.6055   -1.5459   21.6215 C   0  0  0  0  0  0  0  0  0  0  0  0
   10.7850   -1.5671   22.7450 C   0  0  0  0  0  0  0  0  0  0  0  0
    9.3285   -1.9491   22.6397 C   0  0  0  0  0  0  0  0  0  0  0  0
    8.5933   -0.9275   21.7942 C   0  0  0  0  0  0  0  0  0  0  0  0
    8.7917    0.2801   21.9247 O   0  0  0  0  0  0  0  0  0  0  0  0
    7.6704   -1.4446   20.9582 N   0  0  0  0  0  0  0  0  0  0  0  0
    7.1509   -0.8673   19.7812 C   0  0  0  0  0  0  0  0  0  0  0  0
    7.5654    0.3645   19.2717 C   0  0  0  0  0  0  0  0  0  0  0  0
    6.8811    1.0503   18.3475 N   0  0  0  0  0  0  0  0  0  0  0  0
    5.7335    0.5181   17.9113 C   0  0  0  0  0  0  0  0  0  0  0  0
    5.2396   -0.6965   18.3524 C   0  0  0  0  0  0  0  0  0  0  0  0
    5.9717   -1.4069   19.2861 C   0  0  0  0  0  0  0  0  0  0  0  0
  2  1  3  0
  3  2  1  0
  4  3  2  0
  5  4  1  0
  6  5  2  0
  7  3  1  0
  8  7  2  0
  8  6  1  0
  9  8  1  0
 10  9  1  0
 10 11  2  0
 12 10  1  0
 13 12  1  0
 14 13  2  0
 15 14  1  0
 16 15  2  0
 17 16  1  0
 18 17  2  0
 18 13  1  0
M  END
>  <cid>  (4) 
DAR-DIA-23aa0b97-17

>  <score>  (4) 
105.393

$$$$
x2563
     RDKit          3D

 20 22  0  0  0  0  0  0  0  0999 V2000
    8.7749   -1.1475   21.2992 O   0  0  0  0  0  0  0  0  0  0  0  0
    8.5860    0.0435   21.5448 C   0  0  0  0  0  0  0  0  0  0  0  0
    7.8638    0.8635   20.7571 N   0  0  0  0  0  0  0  0  0  0  0  0
    7.0828    0.4597   19.6579 C   0  0  0  0  0  0  0  0  0  0  0  0
    6.5273    1.4259   18.8254 C   0  0  0  0  0  0  0  0  0  0  0  0
    5.5903    1.0606   17.8754 C   0  0  0  0  0  0  0  0  0  0  0  0
    5.2160   -0.2600   17.7391 C   0  0  0  0  0  0  0  0  0  0  0  0
    5.7840   -1.2254   18.5441 C   0  0  0  0  0  0  0  0  0  0  0  0
    6.7216   -0.8750   19.5005 C   0  0  0  0  0  0  0  0  0  0  0  0
    9.1042    0.6965   22.8091 C   0  0  0  0  0  0  0  0  0  0  0  0
   10.6078    0.6578   22.9460 C   0  0  0  0  0  0  0  0  0  0  0  0
   11.2863   -0.5125   23.4080 C   0  0  0  0  0  0  0  0  0  0  0  0
   10.6152   -1.7099   23.7730 C   0  0  0  0  0  0  0  0  0  0  0  0
   11.3153   -2.8087   24.1868 C   0  0  0  0  0  0  0  0  0  0  0  0
   12.6997   -2.7791   24.2657 C   0  0  0  0  0  0  0  0  0  0  0  0
   13.3909   -1.6565   23.9197 C   0  0  0  0  0  0  0  0  0  0  0  0
   12.7069   -0.4937   23.4868 C   0  0  0  0  0  0  0  0  0  0  0  0
   13.3632    0.6978   23.1125 C   0  0  0  0  0  0  0  0  0  0  0  0
   12.7361    1.7852   22.6910 N   0  0  0  0  0  0  0  0  0  0  0  0
   11.4002    1.7396   22.6165 C   0  0  0  0  0  0  0  0  0  0  0  0
  2  1  2  0
  3  2  1  0
  4  3  1  0
  5  4  2  0
  6  5  1  0
  7  6  2  0
  8  7  1  0
  9  4  1  0
  9  8  2  0
 10  2  1  0
 11 10  1  0
 12 11  1  0
 13 12  2  0
 14 13  1  0
 15 14  2  0
 16 15  1  0
 17 16  2  0
 17 12  1  0
 18 17  1  0
 19 18  2  0
 20 19  1  0
 20 11  2  0
M  END
>  <cid>  (5) 
DAR-DIA-23aa0b97-20

>  <score>  (5) 
458.605

$$$$
x2608
     RDKit          3D

 16 17  0  0  0  0  0  0  0  0999 V2000
    9.7766   -0.4802   20.9828 O   0  0  0  0  0  0  0  0  0  0  0  0
    9.0917   -1.3892   21.4443 C   0  0  0  0  0  0  0  0  0  0  0  0
    9.5325   -2.1555   22.5120 N   0  0  0  0  0  0  0  0  0  0  0  0
   10.7769   -1.9101   23.0848 C   0  0  0  0  0  0  0  0  0  0  0  0
   11.6023   -0.8678   22.7843 C   0  0  0  0  0  0  0  0  0  0  0  0
   12.7544   -0.8389   23.6005 C   0  0  0  0  0  0  0  0  0  0  0  0
   11.4352   -2.8774   24.3590 S   0  0  0  0  0  0  0  0  0  0  0  0
   12.8088   -1.8461   24.5141 C   0  0  0  0  0  0  0  0  0  0  0  0
   13.8186   -2.0881   25.5869 C   0  0  0  0  0  0  0  0  0  0  0  0
    7.8545   -1.6997   20.9678 N   0  0  0  0  0  0  0  0  0  0  0  0
    7.2072   -0.9887   19.9372 C   0  0  0  0  0  0  0  0  0  0  0  0
    7.6613    0.2722   19.5523 C   0  0  0  0  0  0  0  0  0  0  0  0
    7.0014    1.0603   18.6958 N   0  0  0  0  0  0  0  0  0  0  0  0
    5.8453    0.6019   18.2010 C   0  0  0  0  0  0  0  0  0  0  0  0
    5.3212   -0.6392   18.5073 C   0  0  0  0  0  0  0  0  0  0  0  0
    6.0205   -1.4508   19.3826 C   0  0  0  0  0  0  0  0  0  0  0  0
  2  1  2  0
  3  2  1  0
  4  3  1  0
  5  4  2  0
  6  5  1  0
  7  4  1  0
  8  7  1  0
  8  6  2  0
  8  9  1  0
 10  2  1  0
 11 10  1  0
 12 11  2  0
 13 12  1  0
 14 13  2  0
 15 14  1  0
 16 15  2  0
 16 11  1  0
M  END
>  <cid>  (6) 
DAR-DIA-842b4336-3

>  <score>  (6) 
-13.4889

$$$$
x2643
     RDKit          3D

 16 17  0  0  0  0  0  0  0  0999 V2000
    9.0819    2.3457   21.4842 O   0  0  0  0  0  0  0  0  0  0  0  0
    9.1220    1.1927   21.9136 C   0  0  0  0  0  0  0  0  0  0  0  0
    9.8926    0.8444   23.1680 C   0  0  0  0  0  0  0  0  0  0  0  0
   11.1151    0.1323   22.6706 C   0  0  0  0  0  0  0  0  0  0  0  0
   12.4256    0.5367   22.8087 C   0  0  0  0  0  0  0  0  0  0  0  0
   13.3448   -0.3210   22.1898 C   0  0  0  0  0  0  0  0  0  0  0  0
   11.0214   -1.3449   21.7786 S   0  0  0  0  0  0  0  0  0  0  0  0
   12.7269   -1.3701   21.6019 C   0  0  0  0  0  0  0  0  0  0  0  0
   13.4745   -2.6587   20.7531 Cl  0  0  0  0  0  0  0  0  0  0  0  0
    8.4828    0.1535   21.3336 N   0  0  0  0  0  0  0  0  0  0  0  0
    7.6475    0.1871   20.1968 C   0  0  0  0  0  0  0  0  0  0  0  0
    7.2357    1.3980   19.6413 C   0  0  0  0  0  0  0  0  0  0  0  0
    6.4732    1.4852   18.5459 N   0  0  0  0  0  0  0  0  0  0  0  0
    6.0827    0.3424   17.9706 C   0  0  0  0  0  0  0  0  0  0  0  0
    6.4240   -0.9083   18.4507 C   0  0  0  0  0  0  0  0  0  0  0  0
    7.2245   -0.9849   19.5788 C   0  0  0  0  0  0  0  0  0  0  0  0
  2  1  2  0
  3  2  1  0
  4  3  1  0
  5  4  2  0
  6  5  1  0
  7  4  1  0
  8  7  1  0
  8  6  2  0
  9  8  1  0
 10  2  1  0
 11 10  1  0
 12 11  2  0
 13 12  1  0
 14 13  2  0
 15 14  1  0
 16 15  2  0
 16 11  1  0
M  END
>  <cid>  (7) 
DAR-DIA-842b4336-13

>  <score>  (7) 
-14.547

$$$$
x10996
     RDKit          3D

 17 18  0  0  0  0  0  0  0  0999 V2000
    5.2996   -0.3784   18.3290 C   0  0  0  0  0  0  0  0  0  0  0  0
   10.1997    0.7626   22.2036 N   0  0  0  0  0  0  0  0  0  0  0  0
    5.6737    0.9086   18.3145 N   0  0  0  0  0  0  0  0  0  0  0  0
   13.2702   -1.3868   24.0130 C   0  0  0  0  0  0  0  0  0  0  0  0
   10.9242   -1.1087   23.5133 C   0  0  0  0  0  0  0  0  0  0  0  0
   11.9752   -1.8626   23.9948 C   0  0  0  0  0  0  0  0  0  0  0  0
    5.9306   -1.3458   19.0875 C   0  0  0  0  0  0  0  0  0  0  0  0
   13.5096   -0.0884   23.5846 C   0  0  0  0  0  0  0  0  0  0  0  0
    8.3739    0.8330   20.8192 N   0  0  0  0  0  0  0  0  0  0  0  0
    7.3954    0.3644   19.9064 C   0  0  0  0  0  0  0  0  0  0  0  0
    9.4780   -1.1335   21.1606 O   0  0  0  0  0  0  0  0  0  0  0  0
    9.3587    0.0660   21.3806 C   0  0  0  0  0  0  0  0  0  0  0  0
    7.0001   -0.9677   19.8832 C   0  0  0  0  0  0  0  0  0  0  0  0
   11.1882    0.1638   23.0162 C   0  0  0  0  0  0  0  0  0  0  0  0
    6.7062    1.2595   19.0891 C   0  0  0  0  0  0  0  0  0  0  0  0
   12.4716    0.6917   23.0964 C   0  0  0  0  0  0  0  0  0  0  0  0
   11.6492   -3.4579   24.6074 Cl  0  0  0  0  0  0  0  0  0  0  0  0
  3  1  2  0
  6  5  1  0
  6  4  2  0
  7  1  1  0
  8  4  1  0
 10  9  1  0
 12 11  2  0
 12  9  1  0
 12  2  1  0
 13  7  2  0
 13 10  1  0
 14  2  1  0
 14  5  2  0
 15 10  2  0
 15  3  1  0
 16 14  1  0
 16  8  2  0
 17  6  1  0
M  END
>  <cid>  (8) 
WAR-XCH-eb7b662f-7

>  <score>  (8) 
108.694

$$$$
x11317
     RDKit          3D

 19 20  0  0  0  0  0  0  0  0999 V2000
   12.7883    1.7468   23.3068 Cl  0  0  0  0  0  0  0  0  0  0  0  0
   12.3191    0.2209   22.6122 C   0  0  0  0  0  0  0  0  0  0  0  0
   13.2849   -0.7312   22.3605 C   0  0  0  0  0  0  0  0  0  0  0  0
   12.8962   -1.9335   21.7899 C   0  0  0  0  0  0  0  0  0  0  0  0
   11.5575   -2.1768   21.5183 C   0  0  0  0  0  0  0  0  0  0  0  0
   10.9862   -0.0058   22.3470 C   0  0  0  0  0  0  0  0  0  0  0  0
   10.5870   -1.2272   21.8187 C   0  0  0  0  0  0  0  0  0  0  0  0
    9.1146   -1.5261   21.6430 C   0  0  0  0  0  0  0  0  0  0  0  0
    8.4327   -0.4457   20.8258 C   0  0  0  0  0  0  0  0  0  0  0  0
    8.6111    0.7531   21.0503 O   0  0  0  0  0  0  0  0  0  0  0  0
    7.5587   -0.9040   19.9085 N   0  0  0  0  0  0  0  0  0  0  0  0
    6.7206   -0.0465   19.1500 C   0  0  0  0  0  0  0  0  0  0  0  0
    5.3441    0.0356   19.4167 C   0  0  0  0  0  0  0  0  0  0  0  0
    4.7122   -0.7617   20.5320 C   0  0  0  0  0  0  0  0  0  0  0  0
    7.2879    0.7378   18.1558 C   0  0  0  0  0  0  0  0  0  0  0  0
    6.5730    1.5823   17.4131 N   0  0  0  0  0  0  0  0  0  0  0  0
    5.2598    1.6613   17.6561 C   0  0  0  0  0  0  0  0  0  0  0  0
    4.6030    0.9004   18.6487 C   0  0  0  0  0  0  0  0  0  0  0  0
    3.2342    1.0729   18.8031 N   0  0  0  0  0  0  0  0  0  0  0  0
  2  1  1  0
  3  2  2  0
  4  3  1  0
  5  4  2  0
  6  2  1  0
  7  5  1  0
  7  6  2  0
  7  8  1  0
  9  8  1  0
  9 10  2  0
 11  9  1  0
 12 11  1  0
 13 12  2  0
 14 13  1  0
 15 12  1  0
 16 15  2  0
 17 16  1  0
 18 17  2  0
 18 13  1  0
 19 18  1  0
M  END
>  <cid>  (9) 
TRY-UNI-714a760b-3

>  <score>  (9) 
224.109

$$$$
x2646
     RDKit          3D

 18 19  0  0  0  0  0  0  0  0999 V2000
   12.7086    2.2095   23.2786 Cl  0  0  0  0  0  0  0  0  0  0  0  0
   12.3590    0.6069   22.6886 C   0  0  0  0  0  0  0  0  0  0  0  0
   13.4004   -0.2662   22.4362 C   0  0  0  0  0  0  0  0  0  0  0  0
   13.1104   -1.5055   21.8793 C   0  0  0  0  0  0  0  0  0  0  0  0
   11.7980   -1.8620   21.6150 C   0  0  0  0  0  0  0  0  0  0  0  0
   11.0425    0.2537   22.4521 C   0  0  0  0  0  0  0  0  0  0  0  0
   10.7518   -1.0028   21.9229 C   0  0  0  0  0  0  0  0  0  0  0  0
    9.3174   -1.4583   21.8073 C   0  0  0  0  0  0  0  0  0  0  0  0
    8.5181   -0.5157   20.9274 C   0  0  0  0  0  0  0  0  0  0  0  0
    8.5062    0.6974   21.1143 O   0  0  0  0  0  0  0  0  0  0  0  0
    7.8075   -1.1227   19.9579 N   0  0  0  0  0  0  0  0  0  0  0  0
    6.9305   -0.4671   19.0708 C   0  0  0  0  0  0  0  0  0  0  0  0
    5.6299   -0.9638   18.8693 C   0  0  0  0  0  0  0  0  0  0  0  0
    5.1638   -2.2625   19.4725 C   0  0  0  0  0  0  0  0  0  0  0  0
    7.2996    0.7296   18.4601 C   0  0  0  0  0  0  0  0  0  0  0  0
    6.4672    1.4515   17.7017 N   0  0  0  0  0  0  0  0  0  0  0  0
    5.2296    0.9752   17.5214 C   0  0  0  0  0  0  0  0  0  0  0  0
    4.7752   -0.2046   18.0757 C   0  0  0  0  0  0  0  0  0  0  0  0
  2  1  1  0
  3  2  2  0
  4  3  1  0
  5  4  2  0
  6  2  1  0
  7  5  1  0
  7  6  2  0
  7  8  1  0
  9  8  1  0
 10  9  2  0
 11  9  1  0
 12 11  1  0
 13 12  2  0
 14 13  1  0
 15 12  1  0
 16 15  2  0
 17 16  1  0
 18 17  2  0
 18 13  1  0
M  END
>  <cid>  (10) 
TRY-UNI-714a760b-6

>  <score>  (10) 
102.113

$$$$
x2908
     RDKit          3D

 18 19  0  0  0  0  0  0  0  0999 V2000
   13.1184   -2.9148   24.8977 Cl  0  0  0  0  0  0  0  0  0  0  0  0
   12.3274   -1.6854   23.9523 C   0  0  0  0  0  0  0  0  0  0  0  0
   12.9037   -0.4332   23.8537 C   0  0  0  0  0  0  0  0  0  0  0  0
   12.2689    0.5364   23.0904 C   0  0  0  0  0  0  0  0  0  0  0  0
   11.0915    0.2431   22.4200 C   0  0  0  0  0  0  0  0  0  0  0  0
   11.1493   -1.9993   23.3084 C   0  0  0  0  0  0  0  0  0  0  0  0
   10.5419   -1.0327   22.5143 C   0  0  0  0  0  0  0  0  0  0  0  0
    9.5107   -1.4711   21.6582 N   0  0  0  0  0  0  0  0  0  0  0  0
    8.7068   -0.6089   20.9671 C   0  0  0  0  0  0  0  0  0  0  0  0
    8.7075    0.5982   21.1664 O   0  0  0  0  0  0  0  0  0  0  0  0
    7.9108   -1.2159   20.0391 N   0  0  0  0  0  0  0  0  0  0  0  0
    7.0160   -0.4777   19.2344 C   0  0  0  0  0  0  0  0  0  0  0  0
    5.7148   -0.9626   19.0054 C   0  0  0  0  0  0  0  0  0  0  0  0
    5.1965   -2.2096   19.6762 C   0  0  0  0  0  0  0  0  0  0  0  0
    7.3857    0.7480   18.6796 C   0  0  0  0  0  0  0  0  0  0  0  0
    6.5654    1.4889   17.9262 N   0  0  0  0  0  0  0  0  0  0  0  0
    5.3360    1.0073   17.6964 C   0  0  0  0  0  0  0  0  0  0  0  0
    4.8799   -0.1937   18.2032 C   0  0  0  0  0  0  0  0  0  0  0  0
  2  1  1  0
  3  2  2  0
  4  3  1  0
  5  4  2  0
  6  2  1  0
  7  5  1  0
  7  6  2  0
  7  8  1  0
  9  8  1  0
 10  9  2  0
 11  9  1  0
 12 11  1  0
 13 12  2  0
 13 14  1  0
 15 12  1  0
 16 15  2  0
 17 16  1  0
 18 17  2  0
 18 13  1  0
M  END
>  <cid>  (11) 
TRY-UNI-714a760b-12

>  <score>  (11) 
100.925

$$$$
x11044
     RDKit          3D

 18 19  0  0  0  0  0  0  0  0999 V2000
    6.9558    1.3244   19.5463 N   0  0  0  0  0  0  0  0  0  0  0  0
    9.8923   -0.0888   22.1137 C   0  0  0  0  0  0  0  0  0  0  0  0
    4.9262    1.0549   18.2383 C   0  0  1  0  0  0  0  0  0  0  0  0
    6.2458    0.4931   18.7570 C   0  0  0  0  0  0  0  0  0  0  0  0
    4.1051    1.6725   19.4021 C   0  0  0  0  0  0  0  0  0  0  0  0
    1.8658    2.5400   20.2279 C   0  0  0  0  0  0  0  0  0  0  0  0
    2.5304    3.7896   20.7924 C   0  0  0  0  0  0  0  0  0  0  0  0
    3.9691    3.4999   21.1796 C   0  0  0  0  0  0  0  0  0  0  0  0
    8.5794    1.7618   21.3408 C   0  0  0  0  0  0  0  0  0  0  0  0
    8.4066   -0.4600   20.4178 C   0  0  0  0  0  0  0  0  0  0  0  0
    7.9899    0.8711   20.4105 C   0  0  0  0  0  0  0  0  0  0  0  0
    9.5627    1.2522   22.1820 C   0  0  0  0  0  0  0  0  0  0  0  0
    8.1231    3.1905   21.4868 C   0  0  0  0  0  0  0  0  0  0  0  0
    5.2860    2.0818   17.1634 C   0  0  0  0  0  0  0  0  0  0  0  0
    9.3273   -0.9453   21.2583 N   0  0  0  0  0  0  0  0  0  0  0  0
    6.5636   -0.6680   18.5498 O   0  0  0  0  0  0  0  0  0  0  0  0
    2.6461    1.9797   19.0365 C   0  0  0  0  0  0  0  0  0  0  0  0
    4.7623    2.9284   20.0014 C   0  0  0  0  0  0  0  0  0  0  0  0
  4  1  1  0
  4  3  1  0
  5  3  1  0
  7  6  1  0
  8  7  1  0
 11 10  1  0
 11  9  2  0
 11  1  1  0
 12  9  1  0
 12  2  2  0
  9 13  1  0
  3 14  1  6
 15 10  2  0
 15  2  1  0
  4 16  2  0
 17  6  1  0
  5 17  1  0
 18  8  1  0
 18  5  1  0
M  END
>  <cid>  (12) 
TRY-UNI-714a760b-16

>  <score>  (12) 
126.21

$$$$
x2649
     RDKit          3D

 19 20  0  0  0  0  0  0  0  0999 V2000
   12.6777    2.1056   23.3183 Cl  0  0  0  0  0  0  0  0  0  0  0  0
   12.3817    0.5226   22.6597 C   0  0  0  0  0  0  0  0  0  0  0  0
   13.4520   -0.2914   22.3430 C   0  0  0  0  0  0  0  0  0  0  0  0
   13.2005   -1.5165   21.7385 C   0  0  0  0  0  0  0  0  0  0  0  0
   11.8974   -1.9295   21.5117 C   0  0  0  0  0  0  0  0  0  0  0  0
   11.0783    0.1244   22.4397 C   0  0  0  0  0  0  0  0  0  0  0  0
   10.8255   -1.1271   21.8895 C   0  0  0  0  0  0  0  0  0  0  0  0
    9.3910   -1.6380   21.8208 C   0  0  1  0  0  0  0  0  0  0  0  0
    8.7897   -1.9208   23.2001 C   0  0  0  0  0  0  0  0  0  0  0  0
    8.5886   -0.6337   20.9872 C   0  0  0  0  0  0  0  0  0  0  0  0
    8.6482    0.5754   21.2016 O   0  0  0  0  0  0  0  0  0  0  0  0
    7.8099   -1.1794   20.0241 N   0  0  0  0  0  0  0  0  0  0  0  0
    6.9503   -0.4541   19.1829 C   0  0  0  0  0  0  0  0  0  0  0  0
    5.7005   -0.9876   18.8258 C   0  0  0  0  0  0  0  0  0  0  0  0
    5.1641   -2.2529   19.4427 C   0  0  0  0  0  0  0  0  0  0  0  0
    4.9283   -0.2522   17.9352 C   0  0  0  0  0  0  0  0  0  0  0  0
    5.3955    0.9635   17.4713 C   0  0  0  0  0  0  0  0  0  0  0  0
    6.5686    1.4946   17.8338 N   0  0  0  0  0  0  0  0  0  0  0  0
    7.3310    0.7859   18.6720 C   0  0  0  0  0  0  0  0  0  0  0  0
  2  1  1  0
  3  2  2  0
  4  3  1  0
  5  4  2  0
  6  2  1  0
  7  5  1  0
  7  6  2  0
  8  7  1  0
  8  9  1  1
 10  8  1  0
 11 10  2  0
 12 10  1  0
 13 12  1  0
 14 13  2  0
 14 15  1  0
 16 14  1  0
 17 16  2  0
 18 17  1  0
 19 18  2  0
 19 13  1  0
M  END
>  <cid>  (13) 
TRY-UNI-714a760b-18

>  <score>  (13) 
100.923

$$$$
x11318
     RDKit          3D

 20 21  0  0  0  0  0  0  0  0999 V2000
   14.3720   -1.0217   19.8569 N   0  0  0  0  0  0  0  0  0  0  0  0
   13.6253   -1.1672   20.7080 C   0  0  0  0  0  0  0  0  0  0  0  0
   12.6453   -1.3479   21.7515 C   0  0  0  0  0  0  0  0  0  0  0  0
   13.0010   -1.1887   23.0887 C   0  0  0  0  0  0  0  0  0  0  0  0
   12.0462   -1.3640   24.0763 C   0  0  0  0  0  0  0  0  0  0  0  0
   10.7356   -1.6540   23.7311 C   0  0  0  0  0  0  0  0  0  0  0  0
   11.3301   -1.6586   21.4106 C   0  0  0  0  0  0  0  0  0  0  0  0
   10.3615   -1.7843   22.4004 C   0  0  0  0  0  0  0  0  0  0  0  0
    8.9204   -2.0175   22.0156 C   0  0  0  0  0  0  0  0  0  0  0  0
    8.3982   -0.8579   21.1954 C   0  0  0  0  0  0  0  0  0  0  0  0
    8.7066    0.3026   21.4486 O   0  0  0  0  0  0  0  0  0  0  0  0
    7.5422   -1.2144   20.2139 N   0  0  0  0  0  0  0  0  0  0  0  0
    6.8334   -0.3063   19.3904 C   0  0  0  0  0  0  0  0  0  0  0  0
    5.4377   -0.1839   19.5089 C   0  0  0  0  0  0  0  0  0  0  0  0
    4.6644   -0.9699   20.5427 C   0  0  0  0  0  0  0  0  0  0  0  0
    7.5372    0.4673   18.4756 C   0  0  0  0  0  0  0  0  0  0  0  0
    6.9451    1.3372   17.6555 N   0  0  0  0  0  0  0  0  0  0  0  0
    5.6159    1.4578   17.7385 C   0  0  0  0  0  0  0  0  0  0  0  0
    4.8034    0.7241   18.6590 C   0  0  0  0  0  0  0  0  0  0  0  0
    3.4250    0.9770   18.6963 N   0  0  0  0  0  0  0  0  0  0  0  0
  2  1  3  0
  3  2  1  0
  4  3  2  0
  5  4  1  0
  6  5  2  0
  7  3  1  0
  8  6  1  0
  8  7  2  0
  9  8  1  0
 10  9  1  0
 11 10  2  0
 12 10  1  0
 13 12  1  0
 14 13  2  0
 15 14  1  0
 16 13  1  0
 17 16  2  0
 18 17  1  0
 19 18  2  0
 19 14  1  0
 20 19  1  0
M  END
>  <cid>  (14) 
TRY-UNI-714a760b-19

>  <score>  (14) 
105.325

$$$$
x2572
     RDKit          3D

 19 20  0  0  0  0  0  0  0  0999 V2000
   12.7183    3.0473   23.4709 N   0  0  0  0  0  0  0  0  0  0  0  0
   12.5325    1.9714   23.1320 C   0  0  0  0  0  0  0  0  0  0  0  0
   12.2782    0.6305   22.6751 C   0  0  0  0  0  0  0  0  0  0  0  0
   13.3393   -0.2155   22.3595 C   0  0  0  0  0  0  0  0  0  0  0  0
   13.0825   -1.4849   21.8698 C   0  0  0  0  0  0  0  0  0  0  0  0
   11.7765   -1.9172   21.7116 C   0  0  0  0  0  0  0  0  0  0  0  0
   10.9646    0.1911   22.5180 C   0  0  0  0  0  0  0  0  0  0  0  0
   10.7076   -1.0919   22.0408 C   0  0  0  0  0  0  0  0  0  0  0  0
    9.2847   -1.5897   21.9332 C   0  0  0  0  0  0  0  0  0  0  0  0
    8.4741   -0.6139   21.1044 C   0  0  0  0  0  0  0  0  0  0  0  0
    8.5353    0.5986   21.2897 O   0  0  0  0  0  0  0  0  0  0  0  0
    7.7320   -1.1835   20.1386 N   0  0  0  0  0  0  0  0  0  0  0  0
    6.9117   -0.4834   19.2332 C   0  0  0  0  0  0  0  0  0  0  0  0
    5.6691   -1.0232   18.8699 C   0  0  0  0  0  0  0  0  0  0  0  0
    5.1624   -2.3184   19.4533 C   0  0  0  0  0  0  0  0  0  0  0  0
    7.3004    0.7424   18.6867 C   0  0  0  0  0  0  0  0  0  0  0  0
    6.5422    1.4356   17.8290 N   0  0  0  0  0  0  0  0  0  0  0  0
    5.3642    0.9067   17.4820 C   0  0  0  0  0  0  0  0  0  0  0  0
    4.8937   -0.2953   17.9728 C   0  0  0  0  0  0  0  0  0  0  0  0
  2  1  3  0
  3  2  1  0
  4  3  2  0
  5  4  1  0
  6  5  2  0
  7  3  1  0
  8  7  2  0
  8  6  1  0
  9  8  1  0
 10  9  1  0
 11 10  2  0
 12 10  1  0
 13 12  1  0
 14 13  2  0
 15 14  1  0
 16 13  1  0
 17 16  2  0
 18 17  1  0
 19 18  2  0
 19 14  1  0
M  END
>  <cid>  (15) 
TRY-UNI-714a760b-20

>  <score>  (15) 
-16.7033

$$$$
x2912
     RDKit          3D

 20 21  0  0  0  0  0  0  0  0999 V2000
   12.5340    3.0981   23.6137 N   0  0  0  0  0  0  0  0  0  0  0  0
   12.4232    2.0453   23.1837 C   0  0  0  0  0  0  0  0  0  0  0  0
   12.2341    0.7193   22.6512 C   0  0  0  0  0  0  0  0  0  0  0  0
   13.3338   -0.0794   22.3435 C   0  0  0  0  0  0  0  0  0  0  0  0
   13.1375   -1.3840   21.9164 C   0  0  0  0  0  0  0  0  0  0  0  0
   11.8533   -1.9021   21.8306 C   0  0  0  0  0  0  0  0  0  0  0  0
   10.9450    0.2074   22.5258 C   0  0  0  0  0  0  0  0  0  0  0  0
   10.7459   -1.1133   22.1345 C   0  0  0  0  0  0  0  0  0  0  0  0
    9.3286   -1.6708   22.0780 C   0  0  1  0  0  0  0  0  0  0  0  0
    8.7170   -1.9162   23.4632 C   0  0  0  0  0  0  0  0  0  0  0  0
    8.5186   -0.7040   21.2096 C   0  0  0  0  0  0  0  0  0  0  0  0
    8.5392    0.5085   21.3988 O   0  0  0  0  0  0  0  0  0  0  0  0
    7.7865   -1.2788   20.2355 N   0  0  0  0  0  0  0  0  0  0  0  0
    6.9562   -0.5535   19.3636 C   0  0  0  0  0  0  0  0  0  0  0  0
    5.7175   -1.0838   18.9694 C   0  0  0  0  0  0  0  0  0  0  0  0
    5.1368   -2.3234   19.6039 C   0  0  0  0  0  0  0  0  0  0  0  0
    5.0105   -0.3873   18.0010 C   0  0  0  0  0  0  0  0  0  0  0  0
    5.5280    0.7883   17.4942 C   0  0  0  0  0  0  0  0  0  0  0  0
    6.6848    1.3273   17.9046 N   0  0  0  0  0  0  0  0  0  0  0  0
    7.3808    0.6610   18.8268 C   0  0  0  0  0  0  0  0  0  0  0  0
  2  1  3  0
  3  2  1  0
  4  3  2  0
  5  4  1  0
  6  5  2  0
  7  3  1  0
  8  6  1  0
  8  7  2  0
  9  8  1  0
  9 10  1  1
 11  9  1  0
 12 11  2  0
 13 11  1  0
 14 13  1  0
 15 14  2  0
 15 16  1  0
 17 15  1  0
 18 17  2  0
 19 18  1  0
 20 19  2  0
 20 14  1  0
M  END
>  <cid>  (16) 
TRY-UNI-714a760b-22

>  <score>  (16) 
-17.2776

$$$$
x10889
     RDKit          3D

 23 24  0  0  0  0  0  0  0  0999 V2000
    6.6721   -4.1358   24.9291 S   0  0  0  0  0  0  0  0  0  0  0  0
    7.3384   -3.2422   23.7513 N   0  0  0  0  0  0  0  0  0  0  0  0
    6.4955    1.4960   18.1330 N   0  0  0  0  0  0  0  0  0  0  0  0
    7.5260   -1.7869   23.8772 C   0  0  0  0  0  0  0  0  0  0  0  0
   11.4464    0.0520   22.8296 C   0  0  0  0  0  0  0  0  0  0  0  0
    7.2217   -5.4503   24.8123 O   0  0  0  0  0  0  0  0  0  0  0  0
    5.5396    0.7778   17.5261 C   0  0  0  0  0  0  0  0  0  0  0  0
    8.9643   -1.3281   23.6735 C   0  0  0  0  0  0  0  0  0  0  0  0
    6.0965   -1.1909   18.7385 C   0  0  0  0  0  0  0  0  0  0  0  0
    7.0998   -0.4755   19.3835 C   0  0  0  0  0  0  0  0  0  0  0  0
    8.7254   -0.4410   21.3024 C   0  0  0  0  0  0  0  0  0  0  0  0
   10.9569   -1.0862   22.1991 C   0  0  0  0  0  0  0  0  0  0  0  0
   13.6882   -0.5111   22.1873 C   0  0  0  0  0  0  0  0  0  0  0  0
    7.2545    0.8699   19.0414 C   0  0  0  0  0  0  0  0  0  0  0  0
   12.8044    0.3371   22.8254 C   0  0  0  0  0  0  0  0  0  0  0  0
   13.2146   -1.6411   21.5486 C   0  0  0  0  0  0  0  0  0  0  0  0
    4.9517   -4.2404   24.6105 C   0  0  0  0  0  0  0  0  0  0  0  0
    7.9794   -1.0462   20.3411 N   0  0  0  0  0  0  0  0  0  0  0  0
    6.8597   -3.4194   26.1523 O   0  0  0  0  0  0  0  0  0  0  0  0
    8.8196    0.7803   21.4290 O   0  0  0  0  0  0  0  0  0  0  0  0
    5.3058   -0.5574   17.7945 C   0  0  0  0  0  0  0  0  0  0  0  0
    9.4698   -1.4115   22.2234 C   0  0  1  0  0  0  0  0  0  0  0  0
   11.8554   -1.9265   21.5516 C   0  0  0  0  0  0  0  0  0  0  0  0
  2  1  1  0
  4  2  1  0
  6  1  2  0
  7  3  2  0
  8  4  1  0
 10  9  1  0
 12  5  2  0
 14 10  2  0
 14  3  1  0
 15 13  2  0
 15  5  1  0
 16 13  1  0
  1 17  1  0
 18 10  1  0
 18 11  1  0
 19  1  2  0
 20 11  2  0
 21  9  2  0
 21  7  1  0
 22 11  1  0
 22  8  1  1
 22 12  1  0
 23 16  2  0
 23 12  1  0
M  END
>  <cid>  (17) 
ADA-UNI-f8e79267-2

>  <score>  (17) 
228.323

$$$$
x10237
     RDKit          3D

 25 27  0  0  0  0  0  0  0  0999 V2000
    6.6992    0.7130   18.3887 N   0  0  0  0  0  0  0  0  0  0  0  0
    8.8810   -2.4653   22.4186 N   0  0  0  0  0  0  0  0  0  0  0  0
    7.1253   -1.8243   21.0110 N   0  0  0  0  0  0  0  0  0  0  0  0
    5.0089   -4.3820   22.6852 C   0  0  0  0  0  0  0  0  0  0  0  0
   12.9550   -2.2417   23.3797 C   0  0  0  0  0  0  0  0  0  0  0  0
    9.0759   -0.6557   21.0674 O   0  0  0  0  0  0  0  0  0  0  0  0
    6.1824   -6.4867   22.9672 C   0  0  0  0  0  0  0  0  0  0  0  0
   12.0487   -2.7417   24.3048 C   0  0  0  0  0  0  0  0  0  0  0  0
    5.3668    0.8505   18.4087 C   0  0  0  0  0  0  0  0  0  0  0  0
    7.9696   -3.2635   23.2472 C   0  0  0  0  0  0  0  0  0  0  0  0
   11.1718   -2.0270   21.7662 C   0  0  0  0  0  0  0  0  0  0  0  0
   10.2707   -2.5258   22.7019 C   0  0  0  0  0  0  0  0  0  0  0  0
    3.8038   -5.0015   23.3574 C   0  0  0  0  0  0  0  0  0  0  0  0
    6.4829   -0.9706   20.0935 C   0  0  0  0  0  0  0  0  0  0  0  0
    7.2350   -0.1887   19.2150 C   0  0  0  0  0  0  0  0  0  0  0  0
    4.9523   -7.0445   23.6370 C   0  0  0  0  0  0  0  0  0  0  0  0
    8.3812   -1.5834   21.4535 C   0  0  0  0  0  0  0  0  0  0  0  0
    5.1049   -0.7999   20.0986 C   0  0  0  0  0  0  0  0  0  0  0  0
   12.4988   -1.9027   22.1189 C   0  0  0  0  0  0  0  0  0  0  0  0
    6.2495   -5.0272   23.1677 N   0  0  0  0  0  0  0  0  0  0  0  0
    3.7576   -6.4209   23.1479 O   0  0  0  0  0  0  0  0  0  0  0  0
    7.4369   -4.4637   22.5120 C   0  0  0  0  0  0  0  0  0  0  0  0
   10.7121   -2.8990   23.9712 C   0  0  0  0  0  0  0  0  0  0  0  0
    4.5338    0.1267   19.2476 C   0  0  0  0  0  0  0  0  0  0  0  0
   13.6322   -1.3517   20.9206 Cl  0  0  0  0  0  0  0  0  0  0  0  0
  8  5  2  0
  9  1  2  0
 10  2  1  0
 12  2  1  0
 12 11  1  0
 13  4  1  0
 14  3  1  0
 15 14  2  0
 15  1  1  0
 16  7  1  0
 17  6  2  0
 17  3  1  0
 17  2  1  0
 18 14  1  0
 19 11  2  0
 19  5  1  0
 20  7  1  0
 20  4  1  0
 21 16  1  0
 21 13  1  0
 22 20  1  0
 22 10  1  0
 23 12  2  0
 23  8  1  0
 24 18  2  0
 24  9  1  0
 25 19  1  0
M  END
>  <cid>  (18) 
JOR-UNI-2fc98d0b-6

>  <score>  (18) 
219.438

$$$$
x10996
     RDKit          3D

 17 18  0  0  0  0  0  0  0  0999 V2000
    5.4009    0.9128   17.9273 C   0  0  0  0  0  0  0  0  0  0  0  0
    9.7477   -1.4285   21.8326 N   0  0  0  0  0  0  0  0  0  0  0  0
    6.3367    1.6036   18.5932 N   0  0  0  0  0  0  0  0  0  0  0  0
   13.1740   -0.5620   24.0308 C   0  0  0  0  0  0  0  0  0  0  0  0
   11.3109   -2.0207   23.5495 C   0  0  0  0  0  0  0  0  0  0  0  0
   12.5153   -1.7660   24.1732 C   0  0  0  0  0  0  0  0  0  0  0  0
    5.3534   -0.4678   17.8946 C   0  0  0  0  0  0  0  0  0  0  0  0
   12.5750    0.4410   23.2811 C   0  0  0  0  0  0  0  0  0  0  0  0
    8.1911   -1.1607   20.1711 N   0  0  0  0  0  0  0  0  0  0  0  0
    7.2847   -0.4888   19.3125 C   0  0  0  0  0  0  0  0  0  0  0  0
    9.0080    0.6575   21.2798 O   0  0  0  0  0  0  0  0  0  0  0  0
    8.9861   -0.5553   21.1064 C   0  0  0  0  0  0  0  0  0  0  0  0
    6.3159   -1.1785   18.5934 C   0  0  0  0  0  0  0  0  0  0  0  0
   10.7570   -1.0344   22.7393 C   0  0  0  0  0  0  0  0  0  0  0  0
    7.2580    0.9044   19.2651 C   0  0  0  0  0  0  0  0  0  0  0  0
   11.3642    0.2123   22.6438 C   0  0  0  0  0  0  0  0  0  0  0  0
   13.2149   -3.0015   25.1787 Cl  0  0  0  0  0  0  0  0  0  0  0  0
  3  1  2  0
  6  5  1  0
  6  4  2  0
  7  1  1  0
  8  4  1  0
 10  9  1  0
 12 11  2  0
 12  9  1  0
 12  2  1  0
 13  7  2  0
 13 10  1  0
 14  2  1  0
 14  5  2  0
 15 10  2  0
 15  3  1  0
 16 14  1  0
 16  8  2  0
 17  6  1  0
M  END
>  <cid>  (19) 
JOR-UNI-2fc98d0b-7

>  <score>  (19) 
-17.3971

$$$$
x10236
     RDKit          3D

 25 27  0  0  0  0  0  0  0  0999 V2000
    9.4140   -1.5896   22.8416 N   0  0  0  0  0  0  0  0  0  0  0  0
    6.9997    1.3787   18.7305 N   0  0  0  0  0  0  0  0  0  0  0  0
    4.5100   -6.0307   22.4082 C   0  0  0  0  0  0  0  0  0  0  0  0
   13.3090   -1.0469   24.2910 C   0  0  0  0  0  0  0  0  0  0  0  0
    6.0808    0.7552   17.9810 C   0  0  0  0  0  0  0  0  0  0  0  0
    7.0563   -4.6147   23.0681 C   0  0  0  0  0  0  0  0  0  0  0  0
   12.6802   -0.0353   23.5806 C   0  0  0  0  0  0  0  0  0  0  0  0
    6.3665   -1.3020   19.1423 C   0  0  0  0  0  0  0  0  0  0  0  0
    8.5127   -2.5552   23.4932 C   0  0  0  0  0  0  0  0  0  0  0  0
   11.2758   -2.3427   24.2254 C   0  0  0  0  0  0  0  0  0  0  0  0
   10.6700   -1.3424   23.4667 C   0  0  0  0  0  0  0  0  0  0  0  0
    5.7778   -6.7998   22.7634 C   0  0  0  0  0  0  0  0  0  0  0  0
    5.7691   -3.8620   22.7061 C   0  0  0  0  0  0  0  0  0  0  0  0
    5.7364   -0.5781   18.1468 C   0  0  0  0  0  0  0  0  0  0  0  0
    7.0365   -6.0002   22.4140 C   0  0  0  0  0  0  0  0  0  0  0  0
    4.5082   -4.6525   23.0612 C   0  0  0  0  0  0  0  0  0  0  0  0
    7.6053    0.6645   19.6825 C   0  0  0  0  0  0  0  0  0  0  0  0
    8.9679   -0.8341   21.7306 C   0  0  0  0  0  0  0  0  0  0  0  0
   12.5904   -2.1768   24.6134 C   0  0  0  0  0  0  0  0  0  0  0  0
    7.8926   -1.3204   21.0609 N   0  0  0  0  0  0  0  0  0  0  0  0
    9.5352    0.2098   21.4314 O   0  0  0  0  0  0  0  0  0  0  0  0
    8.3199   -3.8268   22.6801 C   0  0  0  0  0  0  0  0  0  0  0  0
   11.3618   -0.1738   23.1729 C   0  0  0  0  0  0  0  0  0  0  0  0
    7.3142   -0.6770   19.9432 C   0  0  0  0  0  0  0  0  0  0  0  0
   13.3677   -3.4496   25.5156 Cl  0  0  0  0  0  0  0  0  0  0  0  0
  5  2  2  0
  7  4  2  0
  9  1  1  0
 11  1  1  0
 11 10  1  0
 12  3  1  0
 13  6  1  0
 14  5  1  0
 14  8  2  0
 15 12  1  0
 15  6  1  0
 16 13  1  0
 16  3  1  0
 17  2  1  0
 18  1  1  0
 19 10  2  0
 19  4  1  0
 20 18  1  0
 21 18  2  0
 22  9  1  0
  6 22  1  0
 23 11  2  0
 23  7  1  0
 24 20  1  0
 24 17  2  0
 24  8  1  0
 25 19  1  0
M  END
>  <cid>  (20) 
JOR-UNI-2fc98d0b-12

>  <score>  (20) 
217.061

$$$$
x10049
     RDKit          3D

 21 22  0  0  0  0  0  0  0  0999 V2000
   11.7352   -3.9216   24.6874 O   0  0  0  0  0  0  0  0  0  0  0  0
   11.7998   -2.6626   24.0058 S   0  0  0  0  0  0  0  0  0  0  0  0
   12.3837   -1.5429   24.6805 O   0  0  0  0  0  0  0  0  0  0  0  0
   12.6315   -2.8972   22.6563 N   0  0  0  0  0  0  0  0  0  0  0  0
   10.1480   -2.2103   23.5770 C   0  0  0  0  0  0  0  0  0  0  0  0
    9.6905   -0.9332   23.8547 C   0  0  0  0  0  0  0  0  0  0  0  0
    8.4104   -0.5776   23.4743 C   0  0  0  0  0  0  0  0  0  0  0  0
    9.3395   -3.1374   22.9373 C   0  0  0  0  0  0  0  0  0  0  0  0
    8.0454   -2.7764   22.5646 C   0  0  0  0  0  0  0  0  0  0  0  0
    7.5760   -1.4825   22.8212 C   0  0  0  0  0  0  0  0  0  0  0  0
    6.1833   -1.1048   22.3868 C   0  0  0  0  0  0  0  0  0  0  0  0
    5.2627   -2.3074   22.4002 C   0  0  0  0  0  0  0  0  0  0  0  0
    5.8355   -3.4316   21.5545 C   0  0  0  0  0  0  0  0  0  0  0  0
    7.2028   -3.7775   21.9517 N   0  0  0  0  0  0  0  0  0  0  0  0
    7.4187   -5.1969   22.2510 C   0  0  0  0  0  0  0  0  0  0  0  0
    6.7632   -5.6377   23.5468 C   0  0  0  0  0  0  0  0  0  0  0  0
    7.2571   -4.8085   24.6553 N   0  0  0  0  0  0  0  0  0  0  0  0
    6.2106   -4.1484   25.7022 S   0  0  0  0  0  0  0  0  0  0  0  0
    5.0635   -3.7565   24.9448 O   0  0  0  0  0  0  0  0  0  0  0  0
    6.9243   -3.1493   26.4354 O   0  0  0  0  0  0  0  0  0  0  0  0
    5.7224   -5.4036   26.8237 C   0  0  0  0  0  0  0  0  0  0  0  0
  2  1  2  0
  3  2  2  0
  2  4  1  0
  5  2  1  0
  6  5  2  0
  7  6  1  0
  8  5  1  0
  9  8  2  0
 10  9  1  0
 10  7  2  0
 11 10  1  0
 12 11  1  0
 13 12  1  0
 14 13  1  0
 14  9  1  0
 15 14  1  0
 16 15  1  0
 17 16  1  0
 18 17  1  0
 19 18  2  0
 20 18  2  0
 18 21  1  0
M  END
>  <cid>  (21) 
DUN-NEW-f8ce3686-14

>  <score>  (21) 
125.248

$$$$
x2600
     RDKit          3D

 18 19  0  0  0  0  0  0  0  0999 V2000
   13.6441   -1.3247   20.5760 N   0  0  0  0  0  0  0  0  0  0  0  0
   12.6961   -1.3268   21.2130 C   0  0  0  0  0  0  0  0  0  0  0  0
   11.5015   -1.3705   22.0176 C   0  0  0  0  0  0  0  0  0  0  0  0
   11.1484   -2.5410   22.6845 C   0  0  0  0  0  0  0  0  0  0  0  0
   10.0278   -2.5561   23.4981 C   0  0  0  0  0  0  0  0  0  0  0  0
    9.2609   -1.4107   23.6435 C   0  0  0  0  0  0  0  0  0  0  0  0
   10.7238   -0.2237   22.1590 C   0  0  0  0  0  0  0  0  0  0  0  0
    9.5990   -0.2364   22.9800 C   0  0  0  0  0  0  0  0  0  0  0  0
    8.7817    1.0197   23.1647 C   0  0  0  0  0  0  0  0  0  0  0  0
    7.5625    1.0460   22.2638 C   0  0  0  0  0  0  0  0  0  0  0  0
    6.4364    1.2995   22.6914 O   0  0  0  0  0  0  0  0  0  0  0  0
    7.8220    0.7517   20.9724 N   0  0  0  0  0  0  0  0  0  0  0  0
    6.8786    0.6137   19.9354 C   0  0  0  0  0  0  0  0  0  0  0  0
    7.1229    1.1424   18.6683 C   0  0  0  0  0  0  0  0  0  0  0  0
    6.2182    1.1442   17.6823 N   0  0  0  0  0  0  0  0  0  0  0  0
    5.0260    0.5924   17.9385 C   0  0  0  0  0  0  0  0  0  0  0  0
    4.6903    0.0291   19.1587 C   0  0  0  0  0  0  0  0  0  0  0  0
    5.6351    0.0386   20.1698 C   0  0  0  0  0  0  0  0  0  0  0  0
  2  1  3  0
  3  2  1  0
  4  3  2  0
  5  4  1  0
  6  5  2  0
  7  3  1  0
  8  7  2  0
  8  6  1  0
  9  8  1  0
 10  9  1  0
 11 10  2  0
 12 10  1  0
 13 12  1  0
 14 13  2  0
 15 14  1  0
 16 15  2  0
 17 16  1  0
 18 17  2  0
 18 13  1  0
M  END
>  <cid>  (22) 
ANN-UNI-26382800-5

>  <score>  (22) 
235.51

$$$$
x3351
     RDKit          3D

 13 14  0  0  0  0  0  0  0  0999 V2000
    7.5501    1.8145   21.3582 F   0  0  0  0  0  0  0  0  0  0  0  0
    8.7545    1.2769   21.6874 C   0  0  0  0  0  0  0  0  0  0  0  0
    8.9146   -0.0879   21.5728 C   0  0  0  0  0  0  0  0  0  0  0  0
   10.1268   -0.6486   21.9378 C   0  0  0  0  0  0  0  0  0  0  0  0
    9.7353    2.1321   22.1391 C   0  0  0  0  0  0  0  0  0  0  0  0
   10.9582    1.5785   22.5057 C   0  0  0  0  0  0  0  0  0  0  0  0
   11.1377    0.1867   22.3989 C   0  0  0  0  0  0  0  0  0  0  0  0
   12.4156   -0.0983   22.8093 N   0  0  0  0  0  0  0  0  0  0  0  0
   13.0370    1.0662   23.1698 C   0  0  0  0  0  0  0  0  0  0  0  0
   12.1913    2.1241   23.0032 C   0  0  0  0  0  0  0  0  0  0  0  0
   12.4818    3.5679   23.2711 C   0  0  0  0  0  0  0  0  0  0  0  0
   11.4350    4.0977   24.1482 N   0  0  0  0  0  0  0  0  0  0  0  0
   11.7407    5.4595   24.5871 C   0  0  0  0  0  0  0  0  0  0  0  0
  2  1  1  0
  3  2  2  0
  4  3  1  0
  5  2  1  0
  6  5  2  0
  7  4  2  0
  7  6  1  0
  8  7  1  0
  9  8  1  0
 10  9  2  0
 10  6  1  0
 11 10  1  0
 12 11  1  0
 13 12  1  0
M  END
>  <cid>  (23) 
DAR-DIA-eace69ff-36

>  <score>  (23) 
-2.07093

$$$$
x0689
     RDKit          3D

 18 19  0  0  0  0  0  0  0  0999 V2000
    5.5380   -3.6879   21.4199 N   0  0  0  0  0  0  0  0  0  0  0  0
    4.8414   -2.7141   19.2491 C   0  0  0  0  0  0  0  0  0  0  0  0
    5.2860   -5.0282   19.6422 O   0  0  0  0  0  0  0  0  0  0  0  0
    5.2505   -3.8984   20.1158 C   0  0  0  0  0  0  0  0  0  0  0  0
    5.4501   -2.4036   22.1164 C   0  0  0  0  0  0  0  0  0  0  0  0
    4.4599   -2.5054   23.2457 C   0  0  0  0  0  0  0  0  0  0  0  0
    5.0051   -4.8800   23.4809 C   0  0  0  0  0  0  0  0  0  0  0  0
    5.9684   -4.7501   22.3281 C   0  0  0  0  0  0  0  0  0  0  0  0
    2.4713   -3.5126   25.4685 C   0  0  0  0  0  0  0  0  0  0  0  0
    1.6196   -2.6314   26.0885 C   0  0  0  0  0  0  0  0  0  0  0  0
    0.2803   -2.8562   25.6795 C   0  0  0  0  0  0  0  0  0  0  0  0
    0.1684   -3.8177   24.7321 C   0  0  0  0  0  0  0  0  0  0  0  0
    4.8755   -3.5793   24.1632 N   0  0  0  0  0  0  0  0  0  0  0  0
    4.5118   -4.8332   26.2585 O   0  0  0  0  0  0  0  0  0  0  0  0
    4.6147   -2.3649   26.2975 O   0  0  0  0  0  0  0  0  0  0  0  0
    4.2062   -3.5752   25.6543 S   0  0  0  0  0  0  0  0  0  0  0  0
    1.6470   -4.6158   24.4503 S   0  0  0  0  0  0  0  0  0  0  0  0
    6.1111   -1.4447   18.9694 S   0  0  0  0  0  0  0  0  0  0  0  0
  4  3  2  0
  4  2  1  0
  4  1  1  0
  5  1  1  0
  6  5  1  0
  8  7  1  0
  8  1  1  0
 10  9  2  0
 11 10  1  0
 12 11  2  0
 13  7  1  0
 13  6  1  0
 16 14  2  0
 16 13  1  0
 16  9  1  0
 16 15  2  0
 17 12  1  0
 17  9  1  0
  2 18  1  0
M  END
>  <cid>  (24) 
MAK-UNK-6435e6c2-1

>  <score>  (24) 
-3.30412

$$$$
x2779
     RDKit          3D

 16 17  0  0  0  0  0  0  0  0999 V2000
    5.9569   -5.3785   20.6524 O   0  0  0  0  0  0  0  0  0  0  0  0
    5.2673   -4.5702   21.2480 C   0  0  0  0  0  0  0  0  0  0  0  0
    5.3190   -3.1047   20.8723 C   0  0  0  0  0  0  0  0  0  0  0  0
    4.5306   -4.9103   22.3236 N   0  0  0  0  0  0  0  0  0  0  0  0
    3.6607   -3.9897   23.0620 C   0  0  0  0  0  0  0  0  0  0  0  0
    4.1777   -3.8455   24.4751 C   0  0  0  0  0  0  0  0  0  0  0  0
    4.2101   -5.1579   25.1490 N   0  0  0  0  0  0  0  0  0  0  0  0
    5.0778   -6.0912   24.4026 C   0  0  0  0  0  0  0  0  0  0  0  0
    4.6108   -6.2324   22.9540 C   0  0  0  0  0  0  0  0  0  0  0  0
    4.6671   -5.0264   26.5346 C   0  0  0  0  0  0  0  0  0  0  0  0
    3.8623   -4.0538   27.3450 C   0  0  0  0  0  0  0  0  0  0  0  0
    2.1686   -4.1698   27.4309 S   0  0  0  0  0  0  0  0  0  0  0  0
    2.0568   -2.7867   28.4233 C   0  0  0  0  0  0  0  0  0  0  0  0
    3.2598   -2.2425   28.7024 C   0  0  0  0  0  0  0  0  0  0  0  0
    4.3357   -2.9420   28.0976 C   0  0  0  0  0  0  0  0  0  0  0  0
    5.0071   -2.9716   19.0971 S   0  0  0  0  0  0  0  0  0  0  0  0
  2  1  2  0
  3  2  1  0
  4  2  1  0
  5  4  1  0
  6  5  1  0
  7  6  1  0
  8  7  1  0
  9  4  1  0
  9  8  1  0
 10  7  1  0
 11 10  1  0
 12 11  1  0
 13 12  1  0
 14 13  2  0
 15 14  1  0
 15 11  2  0
  3 16  1  0
M  END
>  <cid>  (25) 
MAK-UNK-6435e6c2-2

>  <score>  (25) 
1.72028

$$$$
x1386
     RDKit          3D

 16 17  0  0  0  0  0  0  0  0999 V2000
    4.5640   -4.8815   22.3477 N   0  0  0  0  0  0  0  0  0  0  0  0
    5.3477   -3.1033   20.8179 C   0  0  0  0  0  0  0  0  0  0  0  0
    5.9513   -5.3995   20.6649 O   0  0  0  0  0  0  0  0  0  0  0  0
    5.3032   -4.5520   21.2687 C   0  0  0  0  0  0  0  0  0  0  0  0
    3.6561   -3.9961   23.0676 C   0  0  0  0  0  0  0  0  0  0  0  0
    4.6097   -6.1978   22.9780 C   0  0  0  0  0  0  0  0  0  0  0  0
    5.0437   -6.0639   24.4195 C   0  0  0  0  0  0  0  0  0  0  0  0
    4.6097   -5.0414   26.5556 C   0  0  0  0  0  0  0  0  0  0  0  0
    3.7404   -4.1065   27.3565 C   0  0  0  0  0  0  0  0  0  0  0  0
    4.1451   -2.8605   27.9239 C   0  0  0  0  0  0  0  0  0  0  0  0
    3.1239   -2.1324   28.4243 C   0  0  0  0  0  0  0  0  0  0  0  0
    2.3899   -4.3234   27.6088 C   0  0  0  0  0  0  0  0  0  0  0  0
    4.1110   -3.8636   24.5011 C   0  0  0  0  0  0  0  0  0  0  0  0
    4.1550   -5.1706   25.1695 N   0  0  0  0  0  0  0  0  0  0  0  0
    1.6480   -2.9306   28.2320 S   0  0  0  0  0  0  0  0  0  0  0  0
    5.0430   -2.9941   19.0384 S   0  0  0  0  0  0  0  0  0  0  0  0
  4  3  2  0
  4  2  1  0
  4  1  1  0
  5  1  1  0
  6  1  1  0
  7  6  1  0
  9  8  1  0
 10  9  1  0
 11 10  2  0
 12  9  2  0
 13  5  1  0
 14 13  1  0
 14  8  1  0
 14  7  1  0
 15 12  1  0
 15 11  1  0
  2 16  1  0
M  END
>  <cid>  (26) 
MAK-UNK-6435e6c2-3

>  <score>  (26) 
1.82001

$$$$
x1384
     RDKit          3D

 17 18  0  0  0  0  0  0  0  0999 V2000
    3.9520   -5.4900   24.3472 N   0  0  0  0  0  0  0  0  0  0  0  0
    4.2832   -7.7121   25.0859 C   0  0  0  0  0  0  0  0  0  0  0  0
    4.2989   -5.8398   26.5754 O   0  0  0  0  0  0  0  0  0  0  0  0
    4.1826   -6.2488   25.4322 C   0  0  0  0  0  0  0  0  0  0  0  0
    5.4473   -2.0027   18.9616 C   0  0  0  0  0  0  0  0  0  0  0  0
    5.1344   -2.8393   20.1720 C   0  0  0  0  0  0  0  0  0  0  0  0
    4.1993   -4.1148   24.1437 C   0  0  0  0  0  0  0  0  0  0  0  0
    4.2419   -3.1852   25.1815 C   0  0  0  0  0  0  0  0  0  0  0  0
    4.5089   -1.8594   24.8902 C   0  0  0  0  0  0  0  0  0  0  0  0
    4.7379   -1.4483   23.5884 C   0  0  0  0  0  0  0  0  0  0  0  0
    4.6988   -2.3842   22.5641 C   0  0  0  0  0  0  0  0  0  0  0  0
    4.4298   -3.7200   22.8351 C   0  0  0  0  0  0  0  0  0  0  0  0
    4.9264   -0.5755   20.8114 C   0  0  0  0  0  0  0  0  0  0  0  0
    4.8877   -0.6321   19.2993 C   0  0  0  0  0  0  0  0  0  0  0  0
    4.9235   -1.9853   21.2188 N   0  0  0  0  0  0  0  0  0  0  0  0
    5.0589   -4.0525   20.2268 O   0  0  0  0  0  0  0  0  0  0  0  0
    2.7085   -8.6015   25.1864 S   0  0  0  0  0  0  0  0  0  0  0  0
  4  3  2  0
  4  2  1  0
  4  1  1  0
  6  5  1  0
  7  1  1  0
  8  7  2  0
  9  8  1  0
 10  9  2  0
 11 10  1  0
 12 11  2  0
 12  7  1  0
 14 13  1  0
 14  5  1  0
 15 13  1  0
 15 11  1  0
 15  6  1  0
 16  6  2  0
  2 17  1  0
M  END
>  <cid>  (27) 
MAK-UNK-6435e6c2-4

>  <score>  (27) 
-3.34139

$$$$
x0691
     RDKit          3D

 20 21  0  0  0  0  0  0  0  0999 V2000
    4.4950   -4.1402   24.2181 N   0  0  0  0  0  0  0  0  0  0  0  0
    0.5666   -2.0746   26.0482 C   0  0  0  0  0  0  0  0  0  0  0  0
    2.9682   -5.5752   25.5090 O   0  0  0  0  0  0  0  0  0  0  0  0
    1.0520   -0.8863   26.5386 C   0  0  0  0  0  0  0  0  0  0  0  0
    5.2235   -4.1558   20.1966 C   0  0  0  0  0  0  0  0  0  0  0  0
    4.7679   -3.0042   19.3407 C   0  0  0  0  0  0  0  0  0  0  0  0
    2.4116   -0.7869   26.7573 C   0  0  0  0  0  0  0  0  0  0  0  0
    3.2473   -1.8615   26.4948 C   0  0  0  0  0  0  0  0  0  0  0  0
    2.7179   -3.0459   26.0057 C   0  0  0  0  0  0  0  0  0  0  0  0
    1.3591   -3.1660   25.7746 C   0  0  0  0  0  0  0  0  0  0  0  0
    3.8093   -3.2131   23.3037 C   0  0  0  0  0  0  0  0  0  0  0  0
    4.7635   -2.7756   22.2236 C   0  0  0  0  0  0  0  0  0  0  0  0
    5.9948   -4.8485   22.4539 C   0  0  0  0  0  0  0  0  0  0  0  0
    5.0314   -5.3151   23.5116 C   0  0  0  0  0  0  0  0  0  0  0  0
   -0.7617   -2.1864   25.8287 F   0  0  0  0  0  0  0  0  0  0  0  0
    5.3179   -3.9399   21.5303 N   0  0  0  0  0  0  0  0  0  0  0  0
    4.8315   -4.4094   26.6433 O   0  0  0  0  0  0  0  0  0  0  0  0
    5.5055   -5.2290   19.6802 O   0  0  0  0  0  0  0  0  0  0  0  0
    3.7865   -4.4135   25.6696 S   0  0  0  0  0  0  0  0  0  0  0  0
    5.9569   -1.6355   19.2608 S   0  0  0  0  0  0  0  0  0  0  0  0
  4  2  2  0
  6  5  1  0
  7  4  1  0
  8  7  2  0
  9  8  1  0
 10  9  2  0
 10  2  1  0
 11  1  1  0
 12 11  1  0
 14 13  1  0
 14  1  1  0
 15  2  1  0
 16 13  1  0
 16  5  1  0
 16 12  1  0
 18  5  2  0
 19  3  2  0
 19  9  1  0
 19  1  1  0
 19 17  2  0
  6 20  1  0
M  END
>  <cid>  (28) 
MAK-UNK-6435e6c2-5

>  <score>  (28) 
-2.46439

$$$$
x0755
     RDKit          3D

 21 22  0  0  0  0  0  0  0  0999 V2000
    4.9747   -3.5511   24.1557 N   0  0  0  0  0  0  0  0  0  0  0  0
    1.7848   -4.0702   25.0368 C   0  0  0  0  0  0  0  0  0  0  0  0
    4.5751   -4.8464   26.2072 O   0  0  0  0  0  0  0  0  0  0  0  0
    0.4320   -3.8271   24.9961 C   0  0  0  0  0  0  0  0  0  0  0  0
    5.2415   -3.9313   20.0926 C   0  0  0  0  0  0  0  0  0  0  0  0
    4.7819   -2.7678   19.2435 C   0  0  0  0  0  0  0  0  0  0  0  0
   -0.0466   -2.6708   25.5790 C   0  0  0  0  0  0  0  0  0  0  0  0
    0.7969   -1.7679   26.1966 C   0  0  0  0  0  0  0  0  0  0  0  0
    2.1455   -2.0337   26.2230 C   0  0  0  0  0  0  0  0  0  0  0  0
    2.6684   -3.1840   25.6431 C   0  0  0  0  0  0  0  0  0  0  0  0
    4.9580   -4.8472   23.4596 C   0  0  0  0  0  0  0  0  0  0  0  0
    5.9204   -4.7804   22.3034 C   0  0  0  0  0  0  0  0  0  0  0  0
    5.5252   -2.4015   22.0856 C   0  0  0  0  0  0  0  0  0  0  0  0
    4.5855   -2.4455   23.2635 C   0  0  0  0  0  0  0  0  0  0  0  0
    2.2456   -5.2058   24.4643 F   0  0  0  0  0  0  0  0  0  0  0  0
    2.9674   -1.1430   26.8260 F   0  0  0  0  0  0  0  0  0  0  0  0
    5.5387   -3.6957   21.3948 N   0  0  0  0  0  0  0  0  0  0  0  0
    5.0568   -2.4255   26.3492 O   0  0  0  0  0  0  0  0  0  0  0  0
    5.3094   -5.0502   19.6034 O   0  0  0  0  0  0  0  0  0  0  0  0
    4.4076   -3.5222   25.6953 S   0  0  0  0  0  0  0  0  0  0  0  0
    6.0482   -1.5687   18.7277 S   0  0  0  0  0  0  0  0  0  0  0  0
  4  2  2  0
  6  5  1  0
  7  4  1  0
  8  7  2  0
  9  8  1  0
 10  9  2  0
 10  2  1  0
 11  1  1  0
 12 11  1  0
 14 13  1  0
 14  1  1  0
 15  2  1  0
 16  9  1  0
 17 12  1  0
 17  5  1  0
 17 13  1  0
 19  5  2  0
 20  3  2  0
 20 10  1  0
 20 18  2  0
 20  1  1  0
  6 21  1  0
M  END
>  <cid>  (29) 
MAK-UNK-6435e6c2-6

>  <score>  (29) 
-3.13377

$$$$
x0478
     RDKit          3D

 15 15  0  0  0  0  0  0  0  0999 V2000
    6.1555   -6.4862   28.3997 C   0  0  0  0  0  0  0  0  0  0  0  0
    5.3302   -5.5732   26.4566 C   0  0  0  0  0  0  0  0  0  0  0  0
    4.2284   -4.8522   25.6959 C   0  0  0  0  0  0  0  0  0  0  0  0
    2.9674   -4.7391   26.2471 C   0  0  0  0  0  0  0  0  0  0  0  0
    1.9631   -4.0916   25.5518 C   0  0  0  0  0  0  0  0  0  0  0  0
    2.2072   -3.5502   24.3064 C   0  0  0  0  0  0  0  0  0  0  0  0
    3.4682   -3.6545   23.7481 C   0  0  0  0  0  0  0  0  0  0  0  0
    5.2341   -2.3430   20.1282 C   0  0  0  0  0  0  0  0  0  0  0  0
    4.4737   -4.3076   24.4519 C   0  0  0  0  0  0  0  0  0  0  0  0
    3.6952   -3.0783   22.4301 N   0  0  0  0  0  0  0  0  0  0  0  0
    5.0141   -6.1953   27.6559 O   0  0  0  0  0  0  0  0  0  0  0  0
    6.4428   -5.6435   26.0555 O   0  0  0  0  0  0  0  0  0  0  0  0
    6.3170   -3.2343   22.3773 O   0  0  0  0  0  0  0  0  0  0  0  0
    5.2225   -4.8125   21.1698 O   0  0  0  0  0  0  0  0  0  0  0  0
    5.1153   -3.4005   21.5383 S   0  0  0  0  0  0  0  0  0  0  0  0
  3  2  1  0
  4  3  2  0
  5  4  1  0
  6  5  2  0
  7  6  1  0
  9  3  1  0
  9  7  2  0
 10  7  1  0
 11  1  1  0
 11  2  1  0
 12  2  2  0
 15  8  1  0
 15 14  2  0
 15 13  2  0
 15 10  1  0
M  END
>  <cid>  (30) 
MAK-UNK-6435e6c2-7

>  <score>  (30) 
-4.38503

$$$$
x0107
     RDKit          3D

 11 11  0  0  0  0  0  0  0  0999 V2000
    4.9685   -2.7403   19.7811 C   0  0  0  0  0  0  0  0  0  0  0  0
    4.9708   -3.3076   21.1993 C   0  0  0  0  0  0  0  0  0  0  0  0
    4.3901   -3.0845   23.6455 C   0  0  0  0  0  0  0  0  0  0  0  0
    4.2783   -4.4539   23.8503 C   0  0  0  0  0  0  0  0  0  0  0  0
    4.3842   -4.2016   26.1243 C   0  0  0  0  0  0  0  0  0  0  0  0
    4.4938   -2.8209   26.0208 C   0  0  0  0  0  0  0  0  0  0  0  0
    4.5011   -2.2447   24.7508 C   0  0  0  0  0  0  0  0  0  0  0  0
    4.6139   -0.7333   24.5708 C   0  0  0  0  0  0  0  0  0  0  0  0
    4.3859   -2.5503   22.2926 N   0  0  0  0  0  0  0  0  0  0  0  0
    4.2812   -4.9709   25.0644 N   0  0  0  0  0  0  0  0  0  0  0  0
    5.4451   -4.3717   21.3991 O   0  0  0  0  0  0  0  0  0  0  0  0
  2  1  1  0
  4  3  2  0
  6  5  1  0
  7  6  2  0
  7  3  1  0
  8  7  1  0
  9  3  1  0
  9  2  1  0
 10  5  2  0
 10  4  1  0
 11  2  2  0
M  END
>  <cid>  (31) 
MAK-UNK-6435e6c2-8

>  <score>  (31) 
3.17607

$$$$
x0464
     RDKit          3D

 15 16  0  0  0  0  0  0  0  0999 V2000
    2.4165   -5.3414   23.4615 C   0  0  0  0  0  0  0  0  0  0  0  0
    3.8016   -4.6985   23.4651 C   0  0  2  0  0  0  0  0  0  0  0  0
    4.5567   -5.2991   22.2661 C   0  0  2  0  0  0  0  0  0  0  0  0
    5.3735   -6.4473   22.5749 C   0  0  0  0  0  0  0  0  0  0  0  0
    5.0554   -7.1359   23.7986 C   0  0  0  0  0  0  0  0  0  0  0  0
    4.8957   -6.2330   25.0130 C   0  0  0  0  0  0  0  0  0  0  0  0
    3.8116   -4.4665   25.7343 C   0  0  0  0  0  0  0  0  0  0  0  0
    3.4390   -2.9836   25.7391 C   0  0  0  0  0  0  0  0  0  0  0  0
    2.1471   -2.6189   26.0992 C   0  0  0  0  0  0  0  0  0  0  0  0
    1.7742   -1.2816   26.0900 C   0  0  0  0  0  0  0  0  0  0  0  0
    2.6881   -0.3113   25.7058 C   0  0  0  0  0  0  0  0  0  0  0  0
    3.9760   -0.6701   25.3336 C   0  0  0  0  0  0  0  0  0  0  0  0
    4.3505   -2.0104   25.3398 C   0  0  0  0  0  0  0  0  0  0  0  0
    4.4539   -4.8741   24.7559 N   0  0  0  0  0  0  0  0  0  0  0  0
    5.3620   -4.2922   21.7170 O   0  0  0  0  0  0  0  0  0  0  0  0
  2  1  1  1
  3  2  1  0
  4  3  1  0
  5  4  1  0
  6  5  1  0
  8  7  1  0
  9  8  2  0
 10  9  1  0
 11 10  2  0
 12 11  1  0
 13 12  2  0
 13  8  1  0
 14  2  1  0
 14  7  1  0
 14  6  1  0
  3 15  1  1
M  END
>  <cid>  (32) 
MAK-UNK-6435e6c2-9

>  <score>  (32) 
4.67909

$$$$
x11225
     RDKit          3D

 24 26  0  0  0  0  0  0  0  0999 V2000
    8.6283    0.9018   21.0765 O   0  0  0  0  0  0  0  0  0  0  0  0
    8.6158   -0.3181   20.9434 C   0  0  0  0  0  0  0  0  0  0  0  0
    7.7893   -0.9701   20.0938 N   0  0  0  0  0  0  0  0  0  0  0  0
    6.9449   -0.3522   19.1371 C   0  0  0  0  0  0  0  0  0  0  0  0
    7.2964    0.8565   18.5328 C   0  0  0  0  0  0  0  0  0  0  0  0
    6.5166    1.5022   17.6604 N   0  0  0  0  0  0  0  0  0  0  0  0
    5.3456    0.9390   17.3488 C   0  0  0  0  0  0  0  0  0  0  0  0
    4.9039   -0.2531   17.8886 C   0  0  0  0  0  0  0  0  0  0  0  0
    5.6998   -0.9277   18.8091 C   0  0  0  0  0  0  0  0  0  0  0  0
    5.2099   -2.1988   19.4530 C   0  0  0  0  0  0  0  0  0  0  0  0
    9.5643   -1.2192   21.7208 C   0  0  0  0  0  0  0  0  0  0  0  0
   10.9262   -0.5803   22.0455 C   0  0  2  0  0  0  0  0  0  0  0  0
   11.8257   -1.3831   22.9537 C   0  0  0  0  0  0  0  0  0  0  0  0
   11.6032   -1.5485   24.2956 C   0  0  0  0  0  0  0  0  0  0  0  0
   12.8264   -2.4903   25.0442 S   0  0  0  0  0  0  0  0  0  0  0  0
   13.6690   -2.7035   23.5838 C   0  0  0  0  0  0  0  0  0  0  0  0
   13.0198   -2.0477   22.5498 C   0  0  0  0  0  0  0  0  0  0  0  0
   10.7717    0.8491   22.4233 N   0  0  0  0  0  0  0  0  0  0  0  0
    9.8534    1.1147   23.5439 C   0  0  0  0  0  0  0  0  0  0  0  0
    9.5117    2.6042   23.6462 C   0  0  0  0  0  0  0  0  0  0  0  0
   10.7671    3.4524   23.7494 C   0  0  0  0  0  0  0  0  0  0  0  0
   10.4321    4.8442   23.6658 O   0  0  0  0  0  0  0  0  0  0  0  0
   11.7777    3.0978   22.6728 C   0  0  0  0  0  0  0  0  0  0  0  0
   12.0300    1.5876   22.6161 C   0  0  0  0  0  0  0  0  0  0  0  0
  2  1  2  0
  3  2  1  0
  4  3  1  0
  5  4  2  0
  6  5  1  0
  7  6  2  0
  8  7  1  0
  9  8  2  0
  9  4  1  0
 10  9  1  0
 11  2  1  0
 12 11  1  1
 13 12  1  0
 14 13  2  0
 15 14  1  0
 16 15  1  0
 17 16  2  0
 17 13  1  0
 18 12  1  0
 19 18  1  0
 20 19  1  0
 21 20  1  0
 21 22  1  0
 23 21  1  0
 24 23  1  0
 24 18  1  0
M  END
>  <cid>  (33) 
PET-SGC-a8a902d9-1

>  <score>  (33) 
101.865

$$$$
x2581
     RDKit          3D

 22 24  0  0  0  0  0  0  0  0999 V2000
    8.9628    0.2217   20.7609 O   0  0  0  0  0  0  0  0  0  0  0  0
    8.7243    1.3424   21.1807 C   0  0  0  0  0  0  0  0  0  0  0  0
    7.6409    2.0657   20.8280 N   0  0  0  0  0  0  0  0  0  0  0  0
    6.6987    1.8171   19.8224 C   0  0  0  0  0  0  0  0  0  0  0  0
    7.0848    0.8668   18.9550 N   0  0  0  0  0  0  0  0  0  0  0  0
    6.2008    0.4847   18.0224 C   0  0  0  0  0  0  0  0  0  0  0  0
    4.9287    1.0140   17.8995 C   0  0  0  0  0  0  0  0  0  0  0  0
    5.4449    2.4387   19.7675 C   0  0  0  0  0  0  0  0  0  0  0  0
    4.5624    2.0179   18.7843 C   0  0  0  0  0  0  0  0  0  0  0  0
    3.3863    2.7233   18.7850 O   0  0  0  0  0  0  0  0  0  0  0  0
    2.2646    2.1760   19.4819 C   0  0  0  0  0  0  0  0  0  0  0  0
    9.6533    2.0327   22.1572 C   0  0  0  0  0  0  0  0  0  0  0  0
   10.6782    1.0862   22.7395 C   0  0  0  0  0  0  0  0  0  0  0  0
   10.3077   -0.1470   23.2170 C   0  0  0  0  0  0  0  0  0  0  0  0
   11.2645   -1.0609   23.7183 C   0  0  0  0  0  0  0  0  0  0  0  0
   12.6300   -0.6826   23.7239 C   0  0  0  0  0  0  0  0  0  0  0  0
   12.9748    0.6011   23.2441 C   0  0  0  0  0  0  0  0  0  0  0  0
   12.0194    1.4497   22.7709 C   0  0  0  0  0  0  0  0  0  0  0  0
   10.9083   -2.3431   24.2087 C   0  0  0  0  0  0  0  0  0  0  0  0
   11.8678   -3.2040   24.6597 C   0  0  0  0  0  0  0  0  0  0  0  0
   13.2049   -2.8363   24.6582 C   0  0  0  0  0  0  0  0  0  0  0  0
   13.5899   -1.6059   24.2043 C   0  0  0  0  0  0  0  0  0  0  0  0
  2  1  2  0
  3  2  1  0
  4  3  1  0
  5  4  2  0
  6  5  1  0
  7  6  2  0
  8  4  1  0
  9  7  1  0
  9  8  2  0
 10  9  1  0
 11 10  1  0
 12  2  1  0
 13 12  1  0
 14 13  2  0
 15 14  1  0
 16 15  2  0
 17 16  1  0
 18 17  2  0
 18 13  1  0
 19 15  1  0
 20 19  2  0
 21 20  1  0
 22 21  2  0
 22 16  1  0
M  END
>  <cid>  (34) 
ALV-UNI-7ff1a6f9-47

>  <score>  (34) 
-13.9762

$$$$
x10019
     RDKit          3D

 22 24  0  0  0  0  0  0  0  0999 V2000
    7.6866    3.2513   20.8349 O   0  0  0  0  0  0  0  0  0  0  0  0
    8.4074    2.3166   21.1685 C   0  0  0  0  0  0  0  0  0  0  0  0
    8.0816    1.0228   20.9790 N   0  0  0  0  0  0  0  0  0  0  0  0
    7.3892    0.4325   19.8970 C   0  0  0  0  0  0  0  0  0  0  0  0
    7.0522    1.1393   18.7403 C   0  0  0  0  0  0  0  0  0  0  0  0
    6.2119    0.6872   17.8023 N   0  0  0  0  0  0  0  0  0  0  0  0
    5.6659   -0.5136   18.0052 C   0  0  0  0  0  0  0  0  0  0  0  0
    5.9272   -1.2928   19.1147 C   0  0  0  0  0  0  0  0  0  0  0  0
    6.8067   -0.8320   20.0898 C   0  0  0  0  0  0  0  0  0  0  0  0
    7.0546   -1.6406   21.3370 C   0  0  0  0  0  0  0  0  0  0  0  0
    9.6970    2.5605   21.9299 C   0  0  0  0  0  0  0  0  0  0  0  0
    9.9881    1.5401   22.9192 N   0  0  0  0  0  0  0  0  0  0  0  0
   11.1816    0.8792   23.0160 C   0  0  0  0  0  0  0  0  0  0  0  0
   11.2050   -0.4948   23.4108 C   0  0  0  0  0  0  0  0  0  0  0  0
   10.0376   -1.2551   23.6774 C   0  0  0  0  0  0  0  0  0  0  0  0
   10.1261   -2.5703   24.0250 C   0  0  0  0  0  0  0  0  0  0  0  0
   11.3627   -3.1924   24.1297 C   0  0  0  0  0  0  0  0  0  0  0  0
   12.5152   -2.4999   23.8861 C   0  0  0  0  0  0  0  0  0  0  0  0
   12.4649   -1.1372   23.5144 C   0  0  0  0  0  0  0  0  0  0  0  0
   13.6434   -0.4950   23.2378 N   0  0  0  0  0  0  0  0  0  0  0  0
   13.5658    0.7735   22.8759 C   0  0  0  0  0  0  0  0  0  0  0  0
   12.3887    1.4924   22.7545 C   0  0  0  0  0  0  0  0  0  0  0  0
  2  1  2  0
  3  2  1  0
  4  3  1  0
  5  4  2  0
  6  5  1  0
  7  6  2  0
  8  7  1  0
  9  8  2  0
  9  4  1  0
  9 10  1  0
 11  2  1  0
 12 11  1  0
 13 12  1  0
 14 13  1  0
 15 14  2  0
 16 15  1  0
 17 16  2  0
 18 17  1  0
 19 18  2  0
 19 14  1  0
 20 19  1  0
 21 20  2  0
 22 21  1  0
 22 13  2  0
M  END
>  <cid>  (35) 
GAB-REV-70cc3ca5-4

>  <score>  (35) 
-15.3221

$$$$
x3080
     RDKit          3D

 26 28  0  0  0  0  0  0  0  0999 V2000
   11.2289    3.4878   24.3310 O   0  0  0  0  0  0  0  0  0  0  0  0
    9.8684    3.1233   24.0935 S   0  0  0  0  0  0  0  0  0  0  0  0
    8.9256    3.1570   25.1685 O   0  0  0  0  0  0  0  0  0  0  0  0
    9.8644    1.4699   23.4331 C   0  0  0  0  0  0  0  0  0  0  0  0
   11.0473    0.8207   22.9725 C   0  0  0  0  0  0  0  0  0  0  0  0
   12.2654    1.3992   23.1946 N   0  0  0  0  0  0  0  0  0  0  0  0
   13.3421    0.7174   22.8380 C   0  0  0  0  0  0  0  0  0  0  0  0
   13.3126   -0.5347   22.2534 C   0  0  0  0  0  0  0  0  0  0  0  0
   12.1048   -1.1201   22.0175 C   0  0  0  0  0  0  0  0  0  0  0  0
   10.9084   -0.4542   22.3727 C   0  0  0  0  0  0  0  0  0  0  0  0
    9.6174   -1.0195   22.2424 C   0  0  0  0  0  0  0  0  0  0  0  0
    8.5216   -0.3714   22.7207 C   0  0  0  0  0  0  0  0  0  0  0  0
    8.6405    0.8664   23.3262 C   0  0  0  0  0  0  0  0  0  0  0  0
    9.2996    4.1344   22.9510 N   0  0  0  0  0  0  0  0  0  0  0  0
    9.9158    5.4605   22.8384 C   0  0  0  0  0  0  0  0  0  0  0  0
    8.0259    3.9060   22.2426 C   0  0  0  0  0  0  0  0  0  0  0  0
    8.1034    2.7953   21.2104 C   0  0  0  0  0  0  0  0  0  0  0  0
    9.1756    2.2893   20.8852 O   0  0  0  0  0  0  0  0  0  0  0  0
    6.9072    2.4461   20.6888 N   0  0  0  0  0  0  0  0  0  0  0  0
    6.6482    1.4128   19.7580 C   0  0  0  0  0  0  0  0  0  0  0  0
    5.4222    1.3836   19.0679 C   0  0  0  0  0  0  0  0  0  0  0  0
    4.3788    2.4559   19.2490 C   0  0  0  0  0  0  0  0  0  0  0  0
    5.2091    0.3252   18.1876 C   0  0  0  0  0  0  0  0  0  0  0  0
    6.1885   -0.6334   18.0229 C   0  0  0  0  0  0  0  0  0  0  0  0
    7.3608   -0.6123   18.6667 N   0  0  0  0  0  0  0  0  0  0  0  0
    7.5750    0.3971   19.5174 C   0  0  0  0  0  0  0  0  0  0  0  0
  2  1  2  0
  3  2  2  0
  4  2  1  0
  5  4  1  0
  5  6  2  0
  7  6  1  0
  8  7  2  0
  9  8  1  0
 10  9  2  0
 10  5  1  0
 11 10  1  0
 12 11  2  0
 13 12  1  0
  4 13  2  0
 14  2  1  0
 15 14  1  0
 16 14  1  0
 17 16  1  0
 18 17  2  0
 19 17  1  0
 20 19  1  0
 21 20  2  0
 22 21  1  0
 23 21  1  0
 24 23  2  0
 25 24  1  0
 26 25  2  0
 26 20  1  0
M  END
>  <cid>  (36) 
GAB-REV-70cc3ca5-8

>  <score>  (36) 
-15.9105

$$$$
x3108
     RDKit          3D

 21 22  0  0  0  0  0  0  0  0999 V2000
   10.3980    0.9984   23.6683 O   0  0  0  0  0  0  0  0  0  0  0  0
   11.1528    1.6766   22.9746 C   0  0  0  0  0  0  0  0  0  0  0  0
   12.6334    1.3668   22.8781 C   0  0  0  0  0  0  0  0  0  0  0  0
   12.9561   -0.1020   23.0394 C   0  0  0  0  0  0  0  0  0  0  0  0
   13.1280   -0.9262   21.9365 C   0  0  0  0  0  0  0  0  0  0  0  0
   13.4132   -2.2326   22.0126 N   0  0  0  0  0  0  0  0  0  0  0  0
   13.5317   -2.7600   23.2366 C   0  0  0  0  0  0  0  0  0  0  0  0
   13.3729   -2.0301   24.3971 C   0  0  0  0  0  0  0  0  0  0  0  0
   13.0793   -0.6863   24.2882 C   0  0  0  0  0  0  0  0  0  0  0  0
   10.7234    2.6891   22.2253 N   0  0  0  0  0  0  0  0  0  0  0  0
    9.3312    2.8230   21.8606 C   0  0  0  0  0  0  0  0  0  0  0  0
    8.7324    1.6238   21.1463 C   0  0  0  0  0  0  0  0  0  0  0  0
    9.3035    0.5430   21.1758 O   0  0  0  0  0  0  0  0  0  0  0  0
    7.5708    1.8408   20.4801 N   0  0  0  0  0  0  0  0  0  0  0  0
    6.9206    0.9855   19.5504 C   0  0  0  0  0  0  0  0  0  0  0  0
    5.6233    1.3162   19.1087 C   0  0  0  0  0  0  0  0  0  0  0  0
    4.9365    2.5861   19.5394 C   0  0  0  0  0  0  0  0  0  0  0  0
    7.5015   -0.1907   19.0656 C   0  0  0  0  0  0  0  0  0  0  0  0
    6.8917   -1.0262   18.2140 N   0  0  0  0  0  0  0  0  0  0  0  0
    5.6595   -0.7046   17.8154 C   0  0  0  0  0  0  0  0  0  0  0  0
    4.9989    0.4347   18.2262 C   0  0  0  0  0  0  0  0  0  0  0  0
  2  1  2  0
  3  2  1  0
  4  3  1  0
  5  4  2  0
  6  5  1  0
  7  6  2  0
  8  7  1  0
  9  8  2  0
  9  4  1  0
 10  2  1  0
 11 10  1  0
 12 11  1  0
 13 12  2  0
 14 12  1  0
 15 14  1  0
 16 15  2  0
 17 16  1  0
 18 15  1  0
 19 18  2  0
 20 19  1  0
 21 20  2  0
 21 16  1  0
M  END
>  <cid>  (37) 
GAB-REV-70cc3ca5-13

>  <score>  (37) 
-17.018

$$$$
x3366
     RDKit          3D

 20 22  0  0  0  0  0  0  0  0999 V2000
    8.0677    2.7667   20.8369 O   0  0  0  0  0  0  0  0  0  0  0  0
    8.3230    1.7593   21.4834 C   0  0  0  0  0  0  0  0  0  0  0  0
    7.8504    0.5337   21.1564 N   0  0  0  0  0  0  0  0  0  0  0  0
    7.0853    0.2723   19.9868 C   0  0  0  0  0  0  0  0  0  0  0  0
    7.0866    1.1370   18.8880 C   0  0  0  0  0  0  0  0  0  0  0  0
    6.3483    0.9392   17.7876 N   0  0  0  0  0  0  0  0  0  0  0  0
    5.5879   -0.1590   17.7469 C   0  0  0  0  0  0  0  0  0  0  0  0
    5.5088   -1.0698   18.7825 C   0  0  0  0  0  0  0  0  0  0  0  0
    6.2617   -0.8686   19.9369 C   0  0  0  0  0  0  0  0  0  0  0  0
    6.1587   -1.8256   21.0958 C   0  0  0  0  0  0  0  0  0  0  0  0
    9.2413    1.8152   22.6899 C   0  0  0  0  0  0  0  0  0  0  0  0
   10.4801    0.9488   22.6531 C   0  0  0  0  0  0  0  0  0  0  0  0
   10.4074   -0.3400   22.1290 C   0  0  0  0  0  0  0  0  0  0  0  0
   11.5777   -1.0675   21.9182 C   0  0  0  0  0  0  0  0  0  0  0  0
   11.7928   -2.3384   21.3803 N   0  0  0  0  0  0  0  0  0  0  0  0
   13.1038   -2.4802   21.3820 C   0  0  0  0  0  0  0  0  0  0  0  0
   13.7662   -1.4099   21.8810 N   0  0  0  0  0  0  0  0  0  0  0  0
   12.8084   -0.4949   22.2381 C   0  0  0  0  0  0  0  0  0  0  0  0
   12.9001    0.7720   22.7959 C   0  0  0  0  0  0  0  0  0  0  0  0
   11.7236    1.4734   23.0082 C   0  0  0  0  0  0  0  0  0  0  0  0
  2  1  2  0
  3  2  1  0
  4  3  1  0
  5  4  2  0
  6  5  1  0
  7  6  2  0
  8  7  1  0
  9  8  2  0
  9  4  1  0
 10  9  1  0
 11  2  1  0
 12 11  1  0
 13 12  2  0
 14 13  1  0
 15 14  1  0
 16 15  1  0
 17 16  2  0
 18 17  1  0
 18 14  2  0
 19 18  1  0
 20 19  2  0
 20 12  1  0
M  END
>  <cid>  (38) 
GAB-REV-70cc3ca5-18

>  <score>  (38) 
-13.8437

$$$$
x0678
     RDKit          3D

 16 17  0  0  0  0  0  0  0  0999 V2000
   11.3630    1.7939   22.7629 C   0  0  0  0  0  0  0  0  0  0  0  0
   12.0774    2.8085   23.6474 C   0  0  0  0  0  0  0  0  0  0  0  0
   11.9714    4.2258   23.1024 C   0  0  0  0  0  0  0  0  0  0  0  0
   12.8985    4.4238   21.9046 C   0  0  0  0  0  0  0  0  0  0  0  0
   13.5894    5.7852   21.8947 C   0  0  0  0  0  0  0  0  0  0  0  0
   12.7618    6.9197   22.4828 C   0  0  0  0  0  0  0  0  0  0  0  0
   12.0741    6.5842   23.8020 C   0  0  0  0  0  0  0  0  0  0  0  0
   12.3100    5.1516   24.2583 C   0  0  0  0  0  0  0  0  0  0  0  0
    9.2369    1.1655   21.6771 C   0  0  0  0  0  0  0  0  0  0  0  0
    9.4346   -0.1992   21.8651 C   0  0  0  0  0  0  0  0  0  0  0  0
    8.7140   -1.0558   21.0399 C   0  0  0  0  0  0  0  0  0  0  0  0
    7.8518   -0.5050   20.1032 C   0  0  0  0  0  0  0  0  0  0  0  0
    8.3539    1.6604   20.7367 C   0  0  0  0  0  0  0  0  0  0  0  0
    9.9763    2.0414   22.5344 N   0  0  0  0  0  0  0  0  0  0  0  0
    7.6980    0.8054   19.9826 N   0  0  0  0  0  0  0  0  0  0  0  0
   11.9020    0.8517   22.2772 O   0  0  0  0  0  0  0  0  0  0  0  0
  2  1  1  0
  3  2  1  0
  4  3  1  0
  5  4  1  0
  6  5  1  0
  7  6  1  0
  8  7  1  0
  8  3  1  0
 10  9  2  0
 11 10  1  0
 12 11  2  0
 13  9  1  0
 14  9  1  0
 14  1  1  0
 15 13  2  0
 15 12  1  0
 16  1  2  0
M  END
>  <cid>  (39) 
ALE-HEI-f28a35b5-9

>  <score>  (39) 
12.0364

$$$$
x2562
     RDKit          3D

 22 24  0  0  0  0  0  0  0  0999 V2000
   14.2814   -3.5135   26.5976 O   0  0  0  0  0  0  0  0  0  0  0  0
   13.7344   -2.8979   25.6887 C   0  0  0  0  0  0  0  0  0  0  0  0
   13.4022   -1.4410   25.4112 C   0  0  0  0  0  0  0  0  0  0  0  0
   13.1132   -3.3129   24.5697 N   0  0  0  0  0  0  0  0  0  0  0  0
   12.4243   -2.0074   24.3705 C   0  0  2  0  0  0  0  0  0  0  0  0
   12.7488   -1.4403   23.0743 O   0  0  0  0  0  0  0  0  0  0  0  0
   12.3036   -0.1449   22.9280 C   0  0  0  0  0  0  0  0  0  0  0  0
   13.1755    0.8994   23.1835 C   0  0  0  0  0  0  0  0  0  0  0  0
   12.7435    2.2028   22.9969 C   0  0  0  0  0  0  0  0  0  0  0  0
   11.4553    2.4625   22.5563 C   0  0  0  0  0  0  0  0  0  0  0  0
   11.0028    0.0966   22.5095 C   0  0  0  0  0  0  0  0  0  0  0  0
   10.5755    1.4101   22.3281 C   0  0  0  0  0  0  0  0  0  0  0  0
    9.2705    1.7367   21.8929 N   0  0  0  0  0  0  0  0  0  0  0  0
    8.3680    0.9470   21.2716 C   0  0  0  0  0  0  0  0  0  0  0  0
    8.4178   -0.2795   21.2663 O   0  0  0  0  0  0  0  0  0  0  0  0
    7.2587    1.7036   20.5704 C   0  0  0  0  0  0  0  0  0  0  0  0
    6.5584    0.8843   19.5119 C   0  0  0  0  0  0  0  0  0  0  0  0
    6.5866    1.2642   18.1802 C   0  0  0  0  0  0  0  0  0  0  0  0
    5.7342    0.8000   17.2607 N   0  0  0  0  0  0  0  0  0  0  0  0
    4.8261   -0.0682   17.7064 C   0  0  0  0  0  0  0  0  0  0  0  0
    4.6775   -0.5000   18.9606 N   0  0  0  0  0  0  0  0  0  0  0  0
    5.5515   -0.0057   19.8445 C   0  0  0  0  0  0  0  0  0  0  0  0
  2  1  2  0
  3  2  1  0
  4  2  1  0
  5  4  1  0
  5  3  1  0
  5  6  1  6
  7  6  1  0
  8  7  2  0
  9  8  1  0
 10  9  2  0
 11  7  1  0
 12 11  2  0
 12 10  1  0
 13 12  1  0
 14 13  1  0
 15 14  2  0
 16 14  1  0
 17 16  1  0
 18 17  2  0
 19 18  1  0
 20 19  2  0
 21 20  1  0
 22 21  2  0
 22 17  1  0
M  END
>  <cid>  (40) 
BAR-COM-4e090d3a-39

>  <score>  (40) 
-14.8618

$$$$
x3305
     RDKit          3D

 26 28  0  0  0  0  0  0  0  0999 V2000
    8.7854    2.0114   21.5631 O   0  0  0  0  0  0  0  0  0  0  0  0
    9.1090    0.8975   21.9536 C   0  0  0  0  0  0  0  0  0  0  0  0
   10.3888    0.5860   22.2477 N   0  0  0  0  0  0  0  0  0  0  0  0
   11.2458    1.3709   23.1112 C   0  0  0  0  0  0  0  0  0  0  0  0
   11.5540    2.7646   22.6661 C   0  0  0  0  0  0  0  0  0  0  0  0
   12.7576    3.3844   22.5104 C   0  0  0  0  0  0  0  0  0  0  0  0
   10.5785    3.6973   22.5162 N   0  0  0  0  0  0  0  0  0  0  0  0
   11.1315    4.8671   22.3046 N   0  0  0  0  0  0  0  0  0  0  0  0
   12.4653    4.6772   22.3132 N   0  0  0  0  0  0  0  0  0  0  0  0
   13.4005    5.7859   22.1693 C   0  0  0  0  0  0  0  0  0  0  0  0
    8.1750   -0.0738   22.1886 N   0  0  0  0  0  0  0  0  0  0  0  0
    6.7695    0.1842   21.8555 C   0  0  0  0  0  0  0  0  0  0  0  0
    6.4233   -0.1357   20.4194 C   0  0  0  0  0  0  0  0  0  0  0  0
    6.7116    0.7466   19.3931 C   0  0  0  0  0  0  0  0  0  0  0  0
    6.4326    0.5131   18.1039 N   0  0  0  0  0  0  0  0  0  0  0  0
    5.8347   -0.6473   17.8051 C   0  0  0  0  0  0  0  0  0  0  0  0
    5.4928   -1.5871   18.7516 C   0  0  0  0  0  0  0  0  0  0  0  0
    5.7975   -1.3232   20.0740 C   0  0  0  0  0  0  0  0  0  0  0  0
    8.4455   -1.3313   22.9055 C   0  0  0  0  0  0  0  0  0  0  0  0
    9.4204   -2.2460   22.1620 C   0  0  0  0  0  0  0  0  0  0  0  0
   10.8707   -2.0085   22.5081 C   0  0  0  0  0  0  0  0  0  0  0  0
   11.2879   -2.0124   23.8329 C   0  0  0  0  0  0  0  0  0  0  0  0
   12.6247   -1.8386   24.1564 C   0  0  0  0  0  0  0  0  0  0  0  0
   13.5584   -1.6396   23.1591 C   0  0  0  0  0  0  0  0  0  0  0  0
   13.1540   -1.6075   21.8388 C   0  0  0  0  0  0  0  0  0  0  0  0
   11.8188   -1.7942   21.5137 C   0  0  0  0  0  0  0  0  0  0  0  0
  2  1  2  0
  3  2  1  0
  4  3  1  0
  5  4  1  0
  6  5  2  0
  7  5  1  0
  8  7  2  0
  9  6  1  0
  9  8  1  0
 10  9  1  0
 11  2  1  0
 12 11  1  0
 13 12  1  0
 14 13  2  0
 15 14  1  0
 16 15  2  0
 17 16  1  0
 18 17  2  0
 18 13  1  0
 19 11  1  0
 20 19  1  0
 21 20  1  0
 22 21  2  0
 23 22  1  0
 24 23  2  0
 25 24  1  0
 26 25  2  0
 26 21  1  0
M  END
>  <cid>  (41) 
BAR-COM-4e090d3a-47

>  <score>  (41) 
-13.3284

$$$$
x2764
     RDKit          3D

 19 20  0  0  0  0  0  0  0  0999 V2000
   12.4582    5.7290   24.4868 N   0  0  0  0  0  0  0  0  0  0  0  0
   12.5581    4.7373   23.9294 C   0  0  0  0  0  0  0  0  0  0  0  0
   12.7176    3.4892   23.1628 C   0  0  0  0  0  0  0  0  0  0  0  0
   11.9204    2.3805   23.6218 O   0  0  0  0  0  0  0  0  0  0  0  0
   12.1037    1.1597   23.0186 C   0  0  0  0  0  0  0  0  0  0  0  0
   13.3034    0.4667   23.1014 C   0  0  0  0  0  0  0  0  0  0  0  0
   13.3612   -0.8457   22.6596 C   0  0  0  0  0  0  0  0  0  0  0  0
   12.2357   -1.4633   22.1590 C   0  0  0  0  0  0  0  0  0  0  0  0
   11.0524   -0.7573   22.0248 C   0  0  0  0  0  0  0  0  0  0  0  0
   10.9811    0.5851   22.4075 C   0  0  0  0  0  0  0  0  0  0  0  0
    9.7708    1.3293   21.9281 C   0  0  0  0  0  0  0  0  0  0  0  0
    9.5457    2.4692   22.3252 O   0  0  0  0  0  0  0  0  0  0  0  0
    8.9581    0.6964   21.0762 N   0  0  0  0  0  0  0  0  0  0  0  0
    7.6281    1.1930   20.7986 C   0  0  0  0  0  0  0  0  0  0  0  0
    6.9385    0.4137   19.7302 C   0  0  0  0  0  0  0  0  0  0  0  0
    6.5993   -0.9069   19.7817 C   0  0  0  0  0  0  0  0  0  0  0  0
    5.7782   -1.3501   18.3782 S   0  0  0  0  0  0  0  0  0  0  0  0
    5.8642    0.1745   17.6988 N   0  0  0  0  0  0  0  0  0  0  0  0
    6.5066    0.9902   18.5230 C   0  0  0  0  0  0  0  0  0  0  0  0
  2  1  3  0
  3  2  1  0
  4  3  1  0
  5  4  1  0
  6  5  2  0
  7  6  1  0
  8  7  2  0
  9  8  1  0
 10  9  2  0
 10  5  1  0
 10 11  1  0
 12 11  2  0
 13 11  1  0
 14 13  1  0
 15 14  1  0
 16 15  2  0
 17 16  1  0
 18 17  1  0
 19 15  1  0
 19 18  2  0
M  END
>  <cid>  (42) 
BAR-COM-4e090d3a-49

>  <score>  (42) 
-20.2796

$$$$
x3298
     RDKit          3D

 28 30  0  0  0  0  0  0  0  0999 V2000
   13.8806    7.0378   21.4884 F   0  0  0  0  0  0  0  0  0  0  0  0
   12.8856    6.2379   21.9500 C   0  0  0  0  0  0  0  0  0  0  0  0
   12.0531    6.7291   22.9234 C   0  0  0  0  0  0  0  0  0  0  0  0
   11.0608    5.9017   23.4185 C   0  0  0  0  0  0  0  0  0  0  0  0
   12.7700    4.9756   21.4298 C   0  0  0  0  0  0  0  0  0  0  0  0
   11.7764    4.1498   21.9242 C   0  0  0  0  0  0  0  0  0  0  0  0
   10.9355    4.6129   22.9223 C   0  0  0  0  0  0  0  0  0  0  0  0
    9.6545    3.5709   23.5260 S   0  0  0  0  0  0  0  0  0  0  0  0
    8.3996    4.1297   23.1238 O   0  0  0  0  0  0  0  0  0  0  0  0
    9.9048    3.3152   24.9142 O   0  0  0  0  0  0  0  0  0  0  0  0
    9.8542    2.1663   22.7263 N   0  0  0  0  0  0  0  0  0  0  0  0
   10.9142    1.2183   22.6693 C   0  0  0  0  0  0  0  0  0  0  0  0
   12.1356    1.4265   23.3146 C   0  0  0  0  0  0  0  0  0  0  0  0
   13.0985    0.4283   23.3099 C   0  0  0  0  0  0  0  0  0  0  0  0
   12.8579   -0.7727   22.6711 C   0  0  0  0  0  0  0  0  0  0  0  0
   11.6383   -1.0088   22.0546 C   0  0  0  0  0  0  0  0  0  0  0  0
   10.6487   -0.0237   22.0746 C   0  0  0  0  0  0  0  0  0  0  0  0
    9.3097   -0.2853   21.6920 N   0  0  0  0  0  0  0  0  0  0  0  0
    8.7801   -1.5113   21.4466 C   0  0  0  0  0  0  0  0  0  0  0  0
    9.4571   -2.5322   21.3586 O   0  0  0  0  0  0  0  0  0  0  0  0
    7.2530   -1.6189   21.4085 C   0  0  1  0  0  0  0  0  0  0  0  0
    6.6297   -0.9243   22.4876 O   0  0  0  0  0  0  0  0  0  0  0  0
    6.9357   -0.8970   20.1074 C   0  0  0  0  0  0  0  0  0  0  0  0
    7.3651    0.4004   19.8647 C   0  0  0  0  0  0  0  0  0  0  0  0
    6.9968    1.1293   18.8041 N   0  0  0  0  0  0  0  0  0  0  0  0
    6.1761    0.5515   17.9164 C   0  0  0  0  0  0  0  0  0  0  0  0
    5.7108   -0.7424   18.0444 C   0  0  0  0  0  0  0  0  0  0  0  0
    6.1028   -1.4693   19.1549 C   0  0  0  0  0  0  0  0  0  0  0  0
  2  1  1  0
  3  2  2  0
  4  3  1  0
  5  2  1  0
  6  5  2  0
  7  6  1  0
  7  4  2  0
  8  7  1  0
  8  9  2  0
 10  8  2  0
 11  8  1  0
 12 11  1  0
 13 12  2  0
 14 13  1  0
 15 14  2  0
 16 15  1  0
 17 16  2  0
 17 12  1  0
 17 18  1  0
 19 18  1  0
 19 20  2  0
 21 19  1  0
 21 22  1  1
 23 21  1  0
 23 24  2  0
 25 24  1  0
 26 25  2  0
 27 26  1  0
 28 27  2  0
 28 23  1  0
M  END
>  <cid>  (43) 
BAR-COM-4e090d3a-57

>  <score>  (43) 
-15.4016

$$$$
x10022
     RDKit          3D

 17 18  0  0  0  0  0  0  0  0999 V2000
    8.7729   -1.3186   20.8622 O   0  0  0  0  0  0  0  0  0  0  0  0
    8.9102   -0.1272   21.1116 C   0  0  0  0  0  0  0  0  0  0  0  0
    7.9801    0.8891   20.5672 C   0  0  0  0  0  0  0  0  0  0  0  0
    7.0331    0.4504   19.5080 C   0  0  0  0  0  0  0  0  0  0  0  0
    6.4030    1.3635   18.6668 C   0  0  0  0  0  0  0  0  0  0  0  0
    5.5113    1.0173   17.7353 N   0  0  0  0  0  0  0  0  0  0  0  0
    5.2174   -0.2828   17.6129 C   0  0  0  0  0  0  0  0  0  0  0  0
    5.7906   -1.2667   18.3929 C   0  0  0  0  0  0  0  0  0  0  0  0
    6.7110   -0.8907   19.3492 C   0  0  0  0  0  0  0  0  0  0  0  0
    8.0302    2.1479   20.9846 C   0  0  0  0  0  0  0  0  0  0  0  0
    9.9069    0.3413   21.8764 N   0  0  0  0  0  0  0  0  0  0  0  0
   10.9912   -0.4183   22.3574 C   0  0  0  0  0  0  0  0  0  0  0  0
   11.2743   -1.6823   21.8653 C   0  0  0  0  0  0  0  0  0  0  0  0
   12.5008   -2.2662   22.1305 C   0  0  0  0  0  0  0  0  0  0  0  0
   13.4341   -1.6076   22.9032 C   0  0  0  0  0  0  0  0  0  0  0  0
   13.1361   -0.3789   23.4382 C   0  0  0  0  0  0  0  0  0  0  0  0
   11.9151    0.2205   23.1769 C   0  0  0  0  0  0  0  0  0  0  0  0
  2  1  2  0
  3  2  1  0
  4  3  1  0
  5  4  2  0
  6  5  1  0
  7  6  2  0
  8  7  1  0
  9  8  2  0
  9  4  1  0
 10  3  2  0
 11  2  1  0
 12 11  1  0
 13 12  2  0
 14 13  1  0
 15 14  2  0
 16 15  1  0
 17 12  1  0
 17 16  2  0
M  END
>  <cid>  (44) 
BEN-DND-031a96cc-8

>  <score>  (44) 
-14.6547

$$$$
x0678
     RDKit          3D

 16 17  0  0  0  0  0  0  0  0999 V2000
   12.1569    0.2009   22.8725 C   0  0  0  0  0  0  0  0  0  0  0  0
   12.9601    1.4779   23.0883 C   0  0  0  0  0  0  0  0  0  0  0  0
   12.2260    2.7136   22.5875 C   0  0  0  0  0  0  0  0  0  0  0  0
   13.1529    3.9275   22.5565 C   0  0  0  0  0  0  0  0  0  0  0  0
   12.4748    5.2166   23.0141 C   0  0  0  0  0  0  0  0  0  0  0  0
   10.9949    5.3104   22.6693 C   0  0  0  0  0  0  0  0  0  0  0  0
   10.1930    4.0486   22.9705 C   0  0  0  0  0  0  0  0  0  0  0  0
   11.0419    2.9106   23.5186 C   0  0  0  0  0  0  0  0  0  0  0  0
   10.1223   -1.0617   23.4729 C   0  0  0  0  0  0  0  0  0  0  0  0
   10.0218   -1.5679   22.1805 C   0  0  0  0  0  0  0  0  0  0  0  0
    9.2115   -2.6847   22.0067 C   0  0  0  0  0  0  0  0  0  0  0  0
    8.5722   -3.2193   23.1155 C   0  0  0  0  0  0  0  0  0  0  0  0
    9.4735   -1.6427   24.5454 C   0  0  0  0  0  0  0  0  0  0  0  0
   10.9634    0.0835   23.6460 N   0  0  0  0  0  0  0  0  0  0  0  0
    8.7195   -2.6976   24.3245 N   0  0  0  0  0  0  0  0  0  0  0  0
   12.4769   -0.6553   22.1119 O   0  0  0  0  0  0  0  0  0  0  0  0
  2  1  1  0
  3  2  1  0
  4  3  1  0
  5  4  1  0
  6  5  1  0
  7  6  1  0
  8  7  1  0
  8  3  1  0
 10  9  2  0
 11 10  1  0
 12 11  2  0
 13  9  1  0
 14  9  1  0
 14  1  1  0
 15 13  2  0
 15 12  1  0
 16  1  2  0
M  END
>  <cid>  (45) 
FRA-FAC-9ed5a63a-1

>  <score>  (45) 
-3.65033

$$$$
x2659
     RDKit          3D

 19 21  0  0  0  0  0  0  0  0999 V2000
   13.6838    0.7329   22.8248 Cl  0  0  0  0  0  0  0  0  0  0  0  0
   12.6101   -0.5596   23.2684 C   0  0  0  0  0  0  0  0  0  0  0  0
   13.0996   -1.5989   24.0367 C   0  0  0  0  0  0  0  0  0  0  0  0
   12.2662   -2.6505   24.3765 C   0  0  0  0  0  0  0  0  0  0  0  0
   11.3020   -0.5217   22.8258 C   0  0  0  0  0  0  0  0  0  0  0  0
   10.4531   -1.5760   23.1510 C   0  0  0  0  0  0  0  0  0  0  0  0
    9.0921   -1.9225   22.8145 C   0  0  0  0  0  0  0  0  0  0  0  0
    8.0847   -1.3179   22.0710 C   0  0  0  0  0  0  0  0  0  0  0  0
    6.8885   -1.9870   21.8887 C   0  0  0  0  0  0  0  0  0  0  0  0
   10.9555   -2.6386   23.9260 C   0  0  0  0  0  0  0  0  0  0  0  0
    9.9761   -3.5991   24.0666 N   0  0  0  0  0  0  0  0  0  0  0  0
    8.8495   -3.1882   23.3863 C   0  0  0  0  0  0  0  0  0  0  0  0
    7.6572   -3.8648   23.1967 C   0  0  0  0  0  0  0  0  0  0  0  0
    6.6721   -3.2598   22.4209 C   0  0  0  0  0  0  0  0  0  0  0  0
    5.3945   -4.0292   22.1273 C   0  0  1  0  0  0  0  0  0  0  0  0
    4.2107   -3.4694   22.8904 C   0  0  0  0  0  0  0  0  0  0  0  0
    5.2099   -4.0660   20.6245 C   0  0  0  0  0  0  0  0  0  0  0  0
    4.8360   -3.0823   20.0322 O   0  0  0  0  0  0  0  0  0  0  0  0
    5.4332   -5.2264   20.0479 O   0  0  0  0  0  0  0  0  0  0  0  0
  2  1  1  0
  3  2  2  0
  4  3  1  0
  5  2  1  0
  6  5  2  0
  7  6  1  0
  8  7  2  0
  9  8  1  0
 10  4  2  0
 10  6  1  0
 11 10  1  0
 12 11  1  0
 12  7  1  0
 13 12  2  0
 14 13  1  0
 14  9  2  0
 15 14  1  0
 15 16  1  1
 17 15  1  0
 18 17  2  0
 19 17  1  0
M  END
>  <cid>  (46) 
MAK-UNK-0d6072ac-4

>  <score>  (46) 
-13.4434

$$$$
x10329
     RDKit          3D

 20 21  0  0  0  0  0  0  0  0999 V2000
   14.0708   -2.1790   25.9289 Cl  0  0  0  0  0  0  0  0  0  0  0  0
   13.5445   -1.8636   24.3034 C   0  0  0  0  0  0  0  0  0  0  0  0
   13.7481   -2.8181   23.3318 C   0  0  0  0  0  0  0  0  0  0  0  0
   13.4317   -2.5074   22.0178 C   0  0  0  0  0  0  0  0  0  0  0  0
   12.8841   -1.2728   21.7050 C   0  0  0  0  0  0  0  0  0  0  0  0
   12.9861   -0.6356   24.0101 C   0  0  0  0  0  0  0  0  0  0  0  0
   12.6255   -0.3391   22.6998 C   0  0  0  0  0  0  0  0  0  0  0  0
   11.8275    0.9186   22.4078 C   0  0  2  0  0  0  0  0  0  0  0  0
   12.3339    2.1346   23.1985 C   0  0  0  0  0  0  0  0  0  0  0  0
   11.6987    3.4314   22.7454 C   0  0  0  0  0  0  0  0  0  0  0  0
   10.3401    0.6113   22.6130 C   0  0  0  0  0  0  0  0  0  0  0  0
    9.9582   -0.1930   23.4575 O   0  0  0  0  0  0  0  0  0  0  0  0
    9.4821    1.2987   21.8258 N   0  0  0  0  0  0  0  0  0  0  0  0
    8.2803    1.0271   21.1456 C   0  0  0  0  0  0  0  0  0  0  0  0
    7.4017    2.0436   20.7106 C   0  0  0  0  0  0  0  0  0  0  0  0
    7.3326    3.3894   21.3871 C   0  0  0  0  0  0  0  0  0  0  0  0
    6.5110    1.7206   19.6920 C   0  0  0  0  0  0  0  0  0  0  0  0
    6.4640    0.5081   19.1263 N   0  0  0  0  0  0  0  0  0  0  0  0
    7.3092   -0.4729   19.5603 N   0  0  0  0  0  0  0  0  0  0  0  0
    8.1513   -0.2180   20.5381 C   0  0  0  0  0  0  0  0  0  0  0  0
  2  1  1  0
  3  2  2  0
  4  3  1  0
  5  4  2  0
  6  2  1  0
  7  6  2  0
  7  5  1  0
  8  7  1  0
  8  9  1  1
 10  9  1  0
 11  8  1  0
 12 11  2  0
 13 11  1  0
 14 13  1  0
 15 14  2  0
 15 16  1  0
 17 15  1  0
 18 17  2  0
 19 18  1  0
 20 19  2  0
 20 14  1  0
M  END
>  <cid>  (47) 
JAN-GHE-83b26c96-1

>  <score>  (47) 
-15.8066

$$$$
x11372
     RDKit          3D

 22 23  0  0  0  0  0  0  0  0999 V2000
   13.2612   -2.6734   20.6116 Cl  0  0  0  0  0  0  0  0  0  0  0  0
   12.6198   -1.3494   21.5463 C   0  0  0  0  0  0  0  0  0  0  0  0
   13.4865   -0.4143   22.0718 C   0  0  0  0  0  0  0  0  0  0  0  0
   12.9719    0.5916   22.8738 C   0  0  0  0  0  0  0  0  0  0  0  0
   11.6101    0.6580   23.1240 C   0  0  0  0  0  0  0  0  0  0  0  0
   11.2579   -1.2877   21.7725 C   0  0  0  0  0  0  0  0  0  0  0  0
   10.7395   -0.2678   22.5643 C   0  0  0  0  0  0  0  0  0  0  0  0
    9.2366   -0.1692   22.7993 C   0  0  2  0  0  0  0  0  0  0  0  0
    8.7255   -1.4098   23.5604 C   0  0  0  0  0  0  0  0  0  0  0  0
    8.5622    0.3909   21.5357 C   0  0  0  0  0  0  0  0  0  0  0  0
    8.4758    1.5980   21.3419 O   0  0  0  0  0  0  0  0  0  0  0  0
    7.9935   -0.5248   20.7026 N   0  0  0  0  0  0  0  0  0  0  0  0
    7.1454   -0.2052   19.6198 C   0  0  0  0  0  0  0  0  0  0  0  0
    6.0373   -1.0192   19.3428 C   0  0  0  0  0  0  0  0  0  0  0  0
    5.8490   -2.1966   20.1037 N   0  0  0  0  0  0  0  0  0  0  0  0
    5.6435   -2.3357   21.4374 C   0  0  0  0  0  0  0  0  0  0  0  0
    5.4669   -3.7503   21.9031 C   0  0  0  0  0  0  0  0  0  0  0  0
    5.5887   -1.3824   22.2144 O   0  0  0  0  0  0  0  0  0  0  0  0
    5.1428   -0.6271   18.3503 C   0  0  0  0  0  0  0  0  0  0  0  0
    5.3938    0.5570   17.6876 C   0  0  0  0  0  0  0  0  0  0  0  0
    6.4456    1.3492   17.9343 N   0  0  0  0  0  0  0  0  0  0  0  0
    7.3056    0.9605   18.8787 C   0  0  0  0  0  0  0  0  0  0  0  0
  2  1  1  0
  3  2  2  0
  4  3  1  0
  5  4  2  0
  6  2  1  0
  7  6  2  0
  7  5  1  0
  8  7  1  0
  8  9  1  6
 10  8  1  0
 10 11  2  0
 12 10  1  0
 13 12  1  0
 14 13  2  0
 15 14  1  0
 16 15  1  0
 17 16  1  0
 18 16  2  0
 19 14  1  0
 20 19  2  0
 21 20  1  0
 22 21  2  0
 22 13  1  0
M  END
>  <cid>  (48) 
JAN-GHE-83b26c96-2

>  <score>  (48) 
-15.4684

$$$$
x10377
     RDKit          3D

 23 25  0  0  0  0  0  0  0  0999 V2000
   13.7903   -2.9871   25.8134 Cl  0  0  0  0  0  0  0  0  0  0  0  0
   13.3298   -2.2846   24.2906 C   0  0  0  0  0  0  0  0  0  0  0  0
   13.8092   -2.8357   23.1192 C   0  0  0  0  0  0  0  0  0  0  0  0
   13.4521   -2.2500   21.9161 C   0  0  0  0  0  0  0  0  0  0  0  0
   12.6108   -1.1477   21.8955 C   0  0  0  0  0  0  0  0  0  0  0  0
   12.4901   -1.1891   24.2871 C   0  0  0  0  0  0  0  0  0  0  0  0
   12.1005   -0.6238   23.0781 C   0  0  0  0  0  0  0  0  0  0  0  0
   11.0472    0.4780   23.0511 C   0  0  1  0  0  0  0  0  0  0  0  0
   11.6741    1.8516   22.7876 C   0  0  0  0  0  0  0  0  0  0  0  0
    9.9780    0.0692   22.0321 C   0  0  0  0  0  0  0  0  0  0  0  0
    9.8034   -1.1066   21.7166 O   0  0  0  0  0  0  0  0  0  0  0  0
    9.2249    1.0888   21.5397 N   0  0  0  0  0  0  0  0  0  0  0  0
    8.1157    0.9695   20.6694 C   0  0  0  0  0  0  0  0  0  0  0  0
    7.1804    2.0080   20.5230 C   0  0  0  0  0  0  0  0  0  0  0  0
    6.0933    1.8273   19.6793 C   0  0  0  0  0  0  0  0  0  0  0  0
    5.9936    0.6218   19.0088 C   0  0  0  0  0  0  0  0  0  0  0  0
    6.8759   -0.3772   19.1214 N   0  0  0  0  0  0  0  0  0  0  0  0
    7.9156   -0.1983   19.9404 C   0  0  0  0  0  0  0  0  0  0  0  0
    7.3175    3.2637   21.1946 N   0  0  0  0  0  0  0  0  0  0  0  0
    6.4297    4.2685   20.9525 N   0  0  0  0  0  0  0  0  0  0  0  0
    6.9113    5.2959   21.6395 C   0  0  0  0  0  0  0  0  0  0  0  0
    8.0821    4.9747   22.3235 C   0  0  0  0  0  0  0  0  0  0  0  0
    8.3162    3.6626   22.0244 C   0  0  0  0  0  0  0  0  0  0  0  0
  2  1  1  0
  3  2  2  0
  4  3  1  0
  5  4  2  0
  6  2  1  0
  7  5  1  0
  7  6  2  0
  8  7  1  0
  8  9  1  6
 10  8  1  0
 11 10  2  0
 12 10  1  0
 13 12  1  0
 14 13  1  0
 15 14  2  0
 16 15  1  0
 17 16  2  0
 18 17  1  0
 18 13  2  0
 19 14  1  0
 20 19  1  0
 21 20  2  0
 22 21  1  0
 23 19  1  0
 23 22  2  0
M  END
>  <cid>  (49) 
JAN-GHE-83b26c96-3

>  <score>  (49) 
-17.8429

$$$$
x10423
     RDKit          3D

 21 22  0  0  0  0  0  0  0  0999 V2000
   12.5540    2.3015   23.3574 Cl  0  0  0  0  0  0  0  0  0  0  0  0
   12.3372    0.7052   22.6973 C   0  0  0  0  0  0  0  0  0  0  0  0
   13.4431   -0.0933   22.4885 C   0  0  0  0  0  0  0  0  0  0  0  0
   13.2563   -1.3583   21.9544 C   0  0  0  0  0  0  0  0  0  0  0  0
   11.9798   -1.8131   21.6593 C   0  0  0  0  0  0  0  0  0  0  0  0
   11.0585    0.2666   22.4125 C   0  0  0  0  0  0  0  0  0  0  0  0
   10.8671   -1.0165   21.9098 C   0  0  0  0  0  0  0  0  0  0  0  0
    9.4562   -1.5682   21.7673 C   0  0  1  0  0  0  0  0  0  0  0  0
    8.7861   -1.7471   23.1385 C   0  0  0  0  0  0  0  0  0  0  0  0
    7.4708   -2.4902   23.0860 C   0  0  0  0  0  0  0  0  0  0  0  0
    7.6601   -3.9294   22.7311 C   0  0  0  0  0  0  0  0  0  0  0  0
    8.6317   -0.6030   20.9155 C   0  0  0  0  0  0  0  0  0  0  0  0
    8.6280    0.6045   21.1213 O   0  0  0  0  0  0  0  0  0  0  0  0
    7.8688   -1.1924   19.9677 N   0  0  0  0  0  0  0  0  0  0  0  0
    6.9770   -0.4920   19.1205 C   0  0  0  0  0  0  0  0  0  0  0  0
    5.6859   -0.9968   18.8893 C   0  0  0  0  0  0  0  0  0  0  0  0
    5.1872   -2.2554   19.5544 C   0  0  0  0  0  0  0  0  0  0  0  0
    4.8430   -0.2455   18.0785 C   0  0  0  0  0  0  0  0  0  0  0  0
    5.2835    0.9557   17.5627 C   0  0  0  0  0  0  0  0  0  0  0  0
    6.5058    1.4502   17.7841 N   0  0  0  0  0  0  0  0  0  0  0  0
    7.3299    0.7297   18.5502 C   0  0  0  0  0  0  0  0  0  0  0  0
  2  1  1  0
  3  2  2  0
  4  3  1  0
  5  4  2  0
  6  2  1  0
  7  5  1  0
  7  6  2  0
  8  7  1  0
  8  9  1  1
 10  9  1  0
 11 10  1  0
 12  8  1  0
 13 12  2  0
 14 12  1  0
 15 14  1  0
 16 15  2  0
 16 17  1  0
 18 16  1  0
 19 18  2  0
 20 19  1  0
 21 20  2  0
 21 15  1  0
M  END
>  <cid>  (50) 
JAN-GHE-83b26c96-8

>  <score>  (50) 
-17.4131

$$$$
x10327
     RDKit          3D

 21 22  0  0  0  0  0  0  0  0999 V2000
   12.5965    1.8917   23.3435 Cl  0  0  0  0  0  0  0  0  0  0  0  0
   12.3942    0.3402   22.5922 C   0  0  0  0  0  0  0  0  0  0  0  0
   13.5054   -0.3458   22.1476 C   0  0  0  0  0  0  0  0  0  0  0  0
   13.3256   -1.5769   21.5379 C   0  0  0  0  0  0  0  0  0  0  0  0
   12.0490   -2.0959   21.3763 C   0  0  0  0  0  0  0  0  0  0  0  0
   11.1189   -0.1621   22.4382 C   0  0  0  0  0  0  0  0  0  0  0  0
   10.9340   -1.3943   21.8232 C   0  0  0  0  0  0  0  0  0  0  0  0
    9.5276   -1.9619   21.6984 C   0  0  1  0  0  0  0  0  0  0  0  0
    8.9539   -2.5578   23.0296 C   0  0  0  0  0  0  0  0  0  0  0  0
    8.5870   -1.4899   24.0435 C   0  0  0  0  0  0  0  0  0  0  0  0
    7.7712   -3.4900   22.7913 C   0  0  0  0  0  0  0  0  0  0  0  0
    8.6221   -0.9230   21.0357 C   0  0  0  0  0  0  0  0  0  0  0  0
    8.7070    0.2704   21.3025 O   0  0  0  0  0  0  0  0  0  0  0  0
    7.8066   -1.4042   20.0733 N   0  0  0  0  0  0  0  0  0  0  0  0
    6.9722   -0.5940   19.2652 C   0  0  0  0  0  0  0  0  0  0  0  0
    5.6619   -1.0193   18.9554 C   0  0  0  0  0  0  0  0  0  0  0  0
    5.1317   -2.3623   19.3880 C   0  0  0  0  0  0  0  0  0  0  0  0
    4.8606   -0.1404   18.2332 C   0  0  0  0  0  0  0  0  0  0  0  0
    5.3646    1.0865   17.8516 C   0  0  0  0  0  0  0  0  0  0  0  0
    6.6048    1.4965   18.1301 N   0  0  0  0  0  0  0  0  0  0  0  0
    7.3899    0.6618   18.8223 C   0  0  0  0  0  0  0  0  0  0  0  0
  2  1  1  0
  3  2  2  0
  4  3  1  0
  5  4  2  0
  6  2  1  0
  7  6  2  0
  7  5  1  0
  8  7  1  0
  8  9  1  1
  9 10  1  0
 11  9  1  0
 12  8  1  0
 12 13  2  0
 14 12  1  0
 15 14  1  0
 16 15  2  0
 17 16  1  0
 18 16  1  0
 19 18  2  0
 20 19  1  0
 21 20  2  0
 21 15  1  0
M  END
>  <cid>  (51) 
JAN-GHE-83b26c96-9

>  <score>  (51) 
-19.7499

$$$$
x10395
     RDKit          3D

 21 22  0  0  0  0  0  0  0  0999 V2000
   13.3434   -2.6146   20.5736 Cl  0  0  0  0  0  0  0  0  0  0  0  0
   12.5170   -2.4213   22.0960 C   0  0  0  0  0  0  0  0  0  0  0  0
   13.2369   -2.5161   23.2690 C   0  0  0  0  0  0  0  0  0  0  0  0
   12.5562   -2.4561   24.4742 C   0  0  0  0  0  0  0  0  0  0  0  0
   11.1810   -2.2808   24.4925 C   0  0  0  0  0  0  0  0  0  0  0  0
   11.1474   -2.2228   22.0981 C   0  0  0  0  0  0  0  0  0  0  0  0
   10.4668   -2.1349   23.3100 C   0  0  0  0  0  0  0  0  0  0  0  0
    9.0040   -1.7066   23.3524 C   0  0  2  0  0  0  0  0  0  0  0  0
    8.0626   -2.7568   23.8269 N   0  0  0  0  0  0  0  0  0  0  0  0
    6.6849   -2.3019   24.0299 C   0  0  0  0  0  0  0  0  0  0  0  0
    8.0569   -3.9100   22.9286 C   0  0  0  0  0  0  0  0  0  0  0  0
    8.5780   -0.9478   22.0821 C   0  0  0  0  0  0  0  0  0  0  0  0
    8.9200    0.2167   21.9166 O   0  0  0  0  0  0  0  0  0  0  0  0
    7.7953   -1.6230   21.2060 N   0  0  0  0  0  0  0  0  0  0  0  0
    7.1368   -1.0461   20.0951 C   0  0  0  0  0  0  0  0  0  0  0  0
    5.8472   -1.4913   19.7360 C   0  0  0  0  0  0  0  0  0  0  0  0
    5.1845   -2.6570   20.4240 C   0  0  0  0  0  0  0  0  0  0  0  0
    5.1926   -0.8016   18.7208 C   0  0  0  0  0  0  0  0  0  0  0  0
    5.8112    0.2736   18.1149 C   0  0  0  0  0  0  0  0  0  0  0  0
    7.0386    0.7003   18.4416 N   0  0  0  0  0  0  0  0  0  0  0  0
    7.6825    0.0345   19.4040 C   0  0  0  0  0  0  0  0  0  0  0  0
  2  1  1  0
  3  2  2  0
  4  3  1  0
  5  4  2  0
  6  2  1  0
  7  6  2  0
  7  5  1  0
  8  7  1  0
  8  9  1  6
 10  9  1  0
 11  9  1  0
  8 12  1  0
 13 12  2  0
 14 12  1  0
 15 14  1  0
 16 15  2  0
 17 16  1  0
 18 16  1  0
 19 18  2  0
 20 19  1  0
 21 20  2  0
 21 15  1  0
M  END
>  <cid>  (52) 
JAN-GHE-83b26c96-10

>  <score>  (52) 
-17.416

$$$$
x10248
     RDKit          3D

 18 19  0  0  0  0  0  0  0  0999 V2000
    9.0603   -0.1772   21.4859 O   0  0  0  0  0  0  0  0  0  0  0  0
    8.5180   -1.2926   21.4457 C   0  0  0  0  0  0  0  0  0  0  0  0
    8.8083   -2.3868   22.4536 C   0  0  0  0  0  0  0  0  0  0  0  0
   10.1588   -2.0907   23.0380 C   0  0  0  0  0  0  0  0  0  0  0  0
   10.2598   -1.5478   24.3073 C   0  0  0  0  0  0  0  0  0  0  0  0
   11.4517   -1.5912   25.0007 C   0  0  0  0  0  0  0  0  0  0  0  0
   11.3067   -2.5952   22.4491 C   0  0  0  0  0  0  0  0  0  0  0  0
   12.5003   -2.6246   23.1405 C   0  0  0  0  0  0  0  0  0  0  0  0
   12.5850   -2.1510   24.4381 C   0  0  0  0  0  0  0  0  0  0  0  0
   13.8497   -2.2949   25.2315 C   0  0  0  0  0  0  0  0  0  0  0  0
    7.5993   -1.6465   20.5454 N   0  0  0  0  0  0  0  0  0  0  0  0
    7.0132   -0.7682   19.6236 C   0  0  0  0  0  0  0  0  0  0  0  0
    5.8571   -1.1516   18.9328 C   0  0  0  0  0  0  0  0  0  0  0  0
    5.1026   -2.4116   19.2727 C   0  0  0  0  0  0  0  0  0  0  0  0
    5.3824   -0.2857   17.9613 C   0  0  0  0  0  0  0  0  0  0  0  0
    6.0193    0.9186   17.7554 C   0  0  0  0  0  0  0  0  0  0  0  0
    7.0945    1.3120   18.4463 N   0  0  0  0  0  0  0  0  0  0  0  0
    7.5823    0.4693   19.3598 C   0  0  0  0  0  0  0  0  0  0  0  0
  2  1  2  0
  3  2  1  0
  4  3  1  0
  5  4  2  0
  6  5  1  0
  7  4  1  0
  8  7  2  0
  9  8  1  0
  9  6  2  0
  9 10  1  0
 11  2  1  0
 12 11  1  0
 13 12  2  0
 13 14  1  0
 15 13  1  0
 16 15  2  0
 17 16  1  0
 18 17  2  0
 18 12  1  0
M  END
>  <cid>  (53) 
JAN-GHE-83b26c96-11

>  <score>  (53) 
-14.916

$$$$
x11368
     RDKit          3D

 18 19  0  0  0  0  0  0  0  0999 V2000
   13.8082   -2.4875   25.6124 Br  0  0  0  0  0  0  0  0  0  0  0  0
   12.9135   -2.4207   23.9404 C   0  0  0  0  0  0  0  0  0  0  0  0
   13.6550   -2.4697   22.7761 C   0  0  0  0  0  0  0  0  0  0  0  0
   12.9868   -2.3516   21.5672 C   0  0  0  0  0  0  0  0  0  0  0  0
   11.6064   -2.2342   21.5428 C   0  0  0  0  0  0  0  0  0  0  0  0
   11.5430   -2.2884   23.9337 C   0  0  0  0  0  0  0  0  0  0  0  0
   10.8714   -2.2247   22.7197 C   0  0  0  0  0  0  0  0  0  0  0  0
    9.3633   -2.2495   22.6974 C   0  0  0  0  0  0  0  0  0  0  0  0
    8.8117   -1.2377   21.7142 C   0  0  0  0  0  0  0  0  0  0  0  0
    9.1900   -0.0685   21.7021 O   0  0  0  0  0  0  0  0  0  0  0  0
    7.8387   -1.7140   20.9171 N   0  0  0  0  0  0  0  0  0  0  0  0
    7.1175   -0.9317   19.9891 C   0  0  0  0  0  0  0  0  0  0  0  0
    5.8209   -1.3141   19.6154 C   0  0  0  0  0  0  0  0  0  0  0  0
    5.1555   -2.5464   20.1763 C   0  0  0  0  0  0  0  0  0  0  0  0
    7.6421    0.2533   19.4804 C   0  0  0  0  0  0  0  0  0  0  0  0
    6.9693    1.0587   18.6538 N   0  0  0  0  0  0  0  0  0  0  0  0
    5.7333    0.6856   18.3046 C   0  0  0  0  0  0  0  0  0  0  0  0
    5.1336   -0.4753   18.7473 C   0  0  0  0  0  0  0  0  0  0  0  0
  2  1  1  0
  3  2  2  0
  4  3  1  0
  5  4  2  0
  6  2  1  0
  7  5  1  0
  7  6  2  0
  7  8  1  0
  9  8  1  0
  9 10  2  0
 11  9  1  0
 12 11  1  0
 13 12  2  0
 13 14  1  0
 15 12  1  0
 16 15  2  0
 17 16  1  0
 18 17  2  0
 18 13  1  0
M  END
>  <cid>  (54) 
JAN-GHE-83b26c96-12

>  <score>  (54) 
-17.3795

$$$$
x10565
     RDKit          3D

 18 19  0  0  0  0  0  0  0  0999 V2000
   11.4459   -2.1178   21.3578 C   0  0  0  0  0  0  0  0  0  0  0  0
    6.8394    1.2827   18.4906 N   0  0  0  0  0  0  0  0  0  0  0  0
   12.7798   -2.3086   23.7527 C   0  0  0  0  0  0  0  0  0  0  0  0
    5.8147   -1.1723   19.3948 C   0  0  0  0  0  0  0  0  0  0  0  0
   13.4954   -2.4264   22.5747 C   0  0  0  0  0  0  0  0  0  0  0  0
    5.2215   -2.4533   19.9235 C   0  0  0  0  0  0  0  0  0  0  0  0
   10.7258   -2.0521   22.5433 C   0  0  0  0  0  0  0  0  0  0  0  0
    5.0775   -0.3376   18.5628 C   0  0  0  0  0  0  0  0  0  0  0  0
    8.7200   -1.0407   21.5408 C   0  0  0  0  0  0  0  0  0  0  0  0
    7.8749   -1.5391   20.6234 N   0  0  0  0  0  0  0  0  0  0  0  0
    9.0292    0.1498   21.6094 O   0  0  0  0  0  0  0  0  0  0  0  0
    7.1033   -0.7458   19.7532 C   0  0  0  0  0  0  0  0  0  0  0  0
    9.2180   -2.0621   22.5429 C   0  0  0  0  0  0  0  0  0  0  0  0
    7.5668    0.4807   19.2740 C   0  0  0  0  0  0  0  0  0  0  0  0
   12.8186   -2.3137   21.3704 C   0  0  0  0  0  0  0  0  0  0  0  0
   11.4139   -2.1285   23.7455 C   0  0  0  0  0  0  0  0  0  0  0  0
    5.6152    0.8640   18.1496 C   0  0  0  0  0  0  0  0  0  0  0  0
   13.7844   -2.2757   25.5832 I   0  0  0  0  0  0  0  0  0  0  0  0
  5  3  1  0
  6  4  1  0
  7  1  2  0
  8  4  1  0
 10  9  1  0
 11  9  2  0
 12  4  2  0
 12 10  1  0
 13  9  1  0
  7 13  1  0
 14 12  1  0
 14  2  2  0
 15  1  1  0
 15  5  2  0
 16  7  1  0
 16  3  2  0
 17  8  2  0
 17  2  1  0
  3 18  1  0
M  END
>  <cid>  (55) 
JAN-GHE-83b26c96-13

>  <score>  (55) 
-18.1546

$$$$
x10247
     RDKit          3D

 21 22  0  0  0  0  0  0  0  0999 V2000
   13.0273   -3.4657   25.9228 F   0  0  0  0  0  0  0  0  0  0  0  0
   13.2315   -2.3595   25.2524 C   0  0  0  0  0  0  0  0  0  0  0  0
   12.7156   -1.3913   26.0230 F   0  0  0  0  0  0  0  0  0  0  0  0
   14.5586   -2.1892   25.2003 F   0  0  0  0  0  0  0  0  0  0  0  0
   12.6148   -2.4158   23.8954 C   0  0  0  0  0  0  0  0  0  0  0  0
   13.3982   -2.2650   22.7551 C   0  0  0  0  0  0  0  0  0  0  0  0
   12.8102   -2.1902   21.5068 C   0  0  0  0  0  0  0  0  0  0  0  0
   11.4324   -2.2664   21.3897 C   0  0  0  0  0  0  0  0  0  0  0  0
   11.2362   -2.5113   23.7648 C   0  0  0  0  0  0  0  0  0  0  0  0
   10.6329   -2.4274   22.5158 C   0  0  0  0  0  0  0  0  0  0  0  0
    9.1328   -2.4933   22.3969 C   0  0  0  0  0  0  0  0  0  0  0  0
    8.6346   -1.3573   21.5290 C   0  0  0  0  0  0  0  0  0  0  0  0
    9.1580   -0.2464   21.5489 O   0  0  0  0  0  0  0  0  0  0  0  0
    7.5853   -1.6786   20.7490 N   0  0  0  0  0  0  0  0  0  0  0  0
    7.0248   -0.8490   19.7636 C   0  0  0  0  0  0  0  0  0  0  0  0
    5.8256   -1.2244   19.1335 C   0  0  0  0  0  0  0  0  0  0  0  0
    5.0641   -2.4606   19.5377 C   0  0  0  0  0  0  0  0  0  0  0  0
    7.6152    0.3667   19.4370 C   0  0  0  0  0  0  0  0  0  0  0  0
    7.0896    1.2112   18.5423 N   0  0  0  0  0  0  0  0  0  0  0  0
    5.9486    0.8439   17.9399 C   0  0  0  0  0  0  0  0  0  0  0  0
    5.3042   -0.3493   18.1888 C   0  0  0  0  0  0  0  0  0  0  0  0
  2  1  1  0
  3  2  1  0
  4  2  1  0
  5  2  1  0
  5  6  2  0
  7  6  1  0
  8  7  2  0
  9  5  1  0
 10  8  1  0
 10  9  2  0
 11 10  1  0
 12 11  1  0
 13 12  2  0
 14 12  1  0
 15 14  1  0
 16 15  2  0
 16 17  1  0
 18 15  1  0
 19 18  2  0
 20 19  1  0
 21 20  2  0
 21 16  1  0
M  END
>  <cid>  (56) 
JAN-GHE-83b26c96-14

>  <score>  (56) 
-15.2567

$$$$
x11041
     RDKit          3D

 19 20  0  0  0  0  0  0  0  0999 V2000
    7.9333   -1.6264   21.8891 N   0  0  0  0  0  0  0  0  0  0  0  0
    6.2969   -0.1307   18.4071 C   0  0  0  0  0  0  0  0  0  0  0  0
    8.7398   -0.8791   22.6859 C   0  0  0  0  0  0  0  0  0  0  0  0
   11.7023   -1.9486   24.7309 C   0  0  0  0  0  0  0  0  0  0  0  0
    9.3657   -1.5340   23.9033 C   0  0  0  0  0  0  0  0  0  0  0  0
   13.5152   -2.4684   23.2266 C   0  0  0  0  0  0  0  0  0  0  0  0
   12.6386   -2.3730   22.1569 C   0  0  0  0  0  0  0  0  0  0  0  0
   11.3042   -2.0641   22.3729 C   0  0  0  0  0  0  0  0  0  0  0  0
    8.0512   -0.3493   19.8522 C   0  0  0  0  0  0  0  0  0  0  0  0
    5.9417   -1.3733   20.4218 C   0  0  0  0  0  0  0  0  0  0  0  0
    7.2765   -1.1054   20.7294 C   0  0  0  0  0  0  0  0  0  0  0  0
    5.4622   -0.8728   19.2168 C   0  0  0  0  0  0  0  0  0  0  0  0
    5.0323   -2.1367   21.3516 C   0  0  0  0  0  0  0  0  0  0  0  0
    7.7584   -3.0546   22.1587 C   0  0  0  0  0  0  0  0  0  0  0  0
    7.5735    0.1399   18.7043 N   0  0  0  0  0  0  0  0  0  0  0  0
    8.9760    0.2980   22.4384 O   0  0  0  0  0  0  0  0  0  0  0  0
   13.0293   -2.2407   24.4990 C   0  0  0  0  0  0  0  0  0  0  0  0
   10.8235   -1.8469   23.6583 C   0  0  0  0  0  0  0  0  0  0  0  0
   14.1397   -2.1959   25.8352 Cl  0  0  0  0  0  0  0  0  0  0  0  0
  3  1  1  0
  5  3  1  0
  7  6  2  0
  8  7  1  0
 11 10  2  0
 11  9  1  0
 11  1  1  0
 12 10  1  0
 12  2  2  0
 13 10  1  0
 14  1  1  0
 15  2  1  0
 15  9  2  0
 16  3  2  0
 17  6  1  0
 17  4  2  0
 18  5  1  0
 18  8  2  0
 18  4  1  0
 17 19  1  0
M  END
>  <cid>  (57) 
JAN-GHE-83b26c96-15

>  <score>  (57) 
-12.4818

$$$$
x10996
     RDKit          3D

 17 18  0  0  0  0  0  0  0  0999 V2000
    5.4340    0.8983   17.8997 C   0  0  0  0  0  0  0  0  0  0  0  0
    9.7782   -1.4357   21.8089 N   0  0  0  0  0  0  0  0  0  0  0  0
    6.4037    1.5852   18.5196 N   0  0  0  0  0  0  0  0  0  0  0  0
   13.1888   -0.5604   24.0280 C   0  0  0  0  0  0  0  0  0  0  0  0
   11.3246   -2.0171   23.5447 C   0  0  0  0  0  0  0  0  0  0  0  0
   12.5246   -1.7607   24.1762 C   0  0  0  0  0  0  0  0  0  0  0  0
    5.3498   -0.4808   17.9143 C   0  0  0  0  0  0  0  0  0  0  0  0
   12.5998    0.4375   23.2637 C   0  0  0  0  0  0  0  0  0  0  0  0
    8.2244   -1.1747   20.1438 N   0  0  0  0  0  0  0  0  0  0  0  0
    7.3147   -0.5072   19.2853 C   0  0  0  0  0  0  0  0  0  0  0  0
    9.0217    0.6460   21.2628 O   0  0  0  0  0  0  0  0  0  0  0  0
    9.0111   -0.5662   21.0841 C   0  0  0  0  0  0  0  0  0  0  0  0
    6.3106   -1.1938   18.6131 C   0  0  0  0  0  0  0  0  0  0  0  0
   10.7812   -1.0366   22.7204 C   0  0  0  0  0  0  0  0  0  0  0  0
    7.3230    0.8840   19.1920 C   0  0  0  0  0  0  0  0  0  0  0  0
   11.3936    0.2070   22.6183 C   0  0  0  0  0  0  0  0  0  0  0  0
   13.2111   -2.9890   25.1993 Cl  0  0  0  0  0  0  0  0  0  0  0  0
  3  1  2  0
  6  5  1  0
  6  4  2  0
  7  1  1  0
  8  4  1  0
 10  9  1  0
 12 11  2  0
 12  9  1  0
 12  2  1  0
 13  7  2  0
 13 10  1  0
 14  2  1  0
 14  5  2  0
 15 10  2  0
 15  3  1  0
 16 14  1  0
 16  8  2  0
 17  6  1  0
M  END
>  <cid>  (58) 
JAN-GHE-83b26c96-19

>  <score>  (58) 
-17.1923

$$$$
x10392
     RDKit          3D

 20 22  0  0  0  0  0  0  0  0999 V2000
   13.7684   -2.3720   25.6636 Cl  0  0  0  0  0  0  0  0  0  0  0  0
   12.9254   -2.3800   24.1415 C   0  0  0  0  0  0  0  0  0  0  0  0
   13.6348   -2.5896   22.9768 C   0  0  0  0  0  0  0  0  0  0  0  0
   12.9659   -2.4989   21.7655 C   0  0  0  0  0  0  0  0  0  0  0  0
   11.6073   -2.2319   21.7389 C   0  0  0  0  0  0  0  0  0  0  0  0
   11.5686   -2.1358   24.1318 C   0  0  0  0  0  0  0  0  0  0  0  0
   10.8880   -2.0917   22.9203 C   0  0  0  0  0  0  0  0  0  0  0  0
    9.3632   -2.1369   22.9057 C   0  0  0  0  0  0  0  0  0  0  0  0
    8.5362   -2.2459   24.1839 C   0  0  0  0  0  0  0  0  0  0  0  0
    8.5882   -3.4050   23.2507 C   0  0  0  0  0  0  0  0  0  0  0  0
    8.7639   -1.2311   21.8124 C   0  0  0  0  0  0  0  0  0  0  0  0
    9.1243   -0.0670   21.7026 O   0  0  0  0  0  0  0  0  0  0  0  0
    7.8348   -1.7709   21.0008 N   0  0  0  0  0  0  0  0  0  0  0  0
    7.1209   -1.0240   20.0356 C   0  0  0  0  0  0  0  0  0  0  0  0
    5.7936   -1.3680   19.7227 C   0  0  0  0  0  0  0  0  0  0  0  0
    5.0912   -2.5247   20.3853 C   0  0  0  0  0  0  0  0  0  0  0  0
    7.6857    0.0889   19.4153 C   0  0  0  0  0  0  0  0  0  0  0  0
    7.0319    0.8579   18.5417 N   0  0  0  0  0  0  0  0  0  0  0  0
    5.7725    0.5143   18.2416 C   0  0  0  0  0  0  0  0  0  0  0  0
    5.1281   -0.5722   18.7964 C   0  0  0  0  0  0  0  0  0  0  0  0
  2  1  1  0
  3  2  2  0
  4  3  1  0
  5  4  2  0
  6  2  1  0
  7  6  2  0
  7  5  1  0
  8  7  1  0
  9  8  1  0
 10  9  1  0
 10  8  1  0
  8 11  1  0
 12 11  2  0
 13 11  1  0
 14 13  1  0
 15 14  2  0
 16 15  1  0
 17 14  1  0
 18 17  2  0
 19 18  1  0
 20 19  2  0
 20 15  1  0
M  END
>  <cid>  (59) 
JAN-GHE-83b26c96-20

>  <score>  (59) 
-17.555

$$$$
x10606
     RDKit          3D

 18 19  0  0  0  0  0  0  0  0999 V2000
    8.2989   -0.7276   22.4657 S   0  0  0  0  0  0  0  0  0  0  0  0
   12.3083   -2.7451   23.0643 C   0  0  0  0  0  0  0  0  0  0  0  0
    7.1008    1.0434   18.4208 N   0  0  0  0  0  0  0  0  0  0  0  0
    5.8845   -1.2908   19.4040 C   0  0  0  0  0  0  0  0  0  0  0  0
   10.8056   -1.4490   21.6900 C   0  0  0  0  0  0  0  0  0  0  0  0
    7.4640   -1.0634   23.5787 O   0  0  0  0  0  0  0  0  0  0  0  0
    5.2305   -2.5565   19.8947 C   0  0  0  0  0  0  0  0  0  0  0  0
   11.3191   -2.8555   24.0317 C   0  0  0  0  0  0  0  0  0  0  0  0
    5.3783   -0.6133   18.2990 C   0  0  0  0  0  0  0  0  0  0  0  0
    9.8394   -1.5569   22.6782 C   0  0  0  0  0  0  0  0  0  0  0  0
    7.5788   -1.4055   21.1691 N   0  0  0  0  0  0  0  0  0  0  0  0
    8.5631    0.6479   22.1763 O   0  0  0  0  0  0  0  0  0  0  0  0
    7.0306   -0.7624   20.0215 C   0  0  0  0  0  0  0  0  0  0  0  0
   10.0789   -2.2684   23.8432 C   0  0  0  0  0  0  0  0  0  0  0  0
    7.5963    0.3984   19.4831 C   0  0  0  0  0  0  0  0  0  0  0  0
   12.0287   -2.0566   21.9013 C   0  0  0  0  0  0  0  0  0  0  0  0
    6.0069    0.5312   17.8516 C   0  0  0  0  0  0  0  0  0  0  0  0
   13.2335   -1.9875   20.6476 Cl  0  0  0  0  0  0  0  0  0  0  0  0
  1  6  2  0
  7  4  1  0
  8  2  2  0
  9  4  1  0
 10  1  1  0
 10  5  1  0
 11  1  1  0
 12  1  2  0
 13 11  1  0
 13  4  2  0
 14 10  2  0
 14  8  1  0
 15 13  1  0
 15  3  2  0
 16  5  2  0
 16  2  1  0
 17  9  2  0
 17  3  1  0
 18 16  1  0
M  END
>  <cid>  (60) 
JAN-GHE-83b26c96-21

>  <score>  (60) 
-11.3279

$$$$
x10422
     RDKit          3D

 20 21  0  0  0  0  0  0  0  0999 V2000
   13.5200   -2.6087   20.5946 Cl  0  0  0  0  0  0  0  0  0  0  0  0
   12.5175   -2.4573   22.0103 C   0  0  0  0  0  0  0  0  0  0  0  0
   13.1064   -2.4937   23.2597 C   0  0  0  0  0  0  0  0  0  0  0  0
   12.2878   -2.5035   24.3780 C   0  0  0  0  0  0  0  0  0  0  0  0
   10.9099   -2.4525   24.2365 C   0  0  0  0  0  0  0  0  0  0  0  0
   11.1499   -2.3756   21.8511 C   0  0  0  0  0  0  0  0  0  0  0  0
   10.3261   -2.3675   22.9744 C   0  0  0  0  0  0  0  0  0  0  0  0
    8.8075   -2.2061   22.7975 C   0  0  0  0  0  0  0  0  0  0  0  0
    8.1576   -3.5983   22.7016 C   0  0  0  0  0  0  0  0  0  0  0  0
    8.1532   -1.4633   23.9769 C   0  0  0  0  0  0  0  0  0  0  0  0
    8.5394   -1.3608   21.5341 C   0  0  0  0  0  0  0  0  0  0  0  0
    9.3113   -0.4713   21.2090 O   0  0  0  0  0  0  0  0  0  0  0  0
    7.4010   -1.6294   20.8539 N   0  0  0  0  0  0  0  0  0  0  0  0
    6.9378   -0.8706   19.7542 C   0  0  0  0  0  0  0  0  0  0  0  0
    5.8086   -1.3075   19.0383 C   0  0  0  0  0  0  0  0  0  0  0  0
    5.0764   -2.5744   19.3963 C   0  0  0  0  0  0  0  0  0  0  0  0
    7.5154    0.3493   19.4086 C   0  0  0  0  0  0  0  0  0  0  0  0
    7.0343    1.1505   18.4529 N   0  0  0  0  0  0  0  0  0  0  0  0
    5.9650    0.7232   17.7770 C   0  0  0  0  0  0  0  0  0  0  0  0
    5.3384   -0.4817   18.0219 C   0  0  0  0  0  0  0  0  0  0  0  0
  2  1  1  0
  3  2  2  0
  4  3  1  0
  5  4  2  0
  6  2  1  0
  7  6  2  0
  7  5  1  0
  8  7  1  0
  8  9  1  0
 10  8  1  0
 11  8  1  0
 12 11  2  0
 13 11  1  0
 14 13  1  0
 15 14  2  0
 15 16  1  0
 17 14  1  0
 18 17  2  0
 19 18  1  0
 20 19  2  0
 20 15  1  0
M  END
>  <cid>  (61) 
JAN-GHE-83b26c96-22

>  <score>  (61) 
-18.3089

$$$$
x10396
     RDKit          3D

 20 21  0  0  0  0  0  0  0  0999 V2000
    8.9747   -3.5391   22.6029 F   0  0  0  0  0  0  0  0  0  0  0  0
   11.7211   -2.2574   21.7396 C   0  0  0  0  0  0  0  0  0  0  0  0
    7.0557    0.8377   18.6032 N   0  0  0  0  0  0  0  0  0  0  0  0
   12.9746   -2.6583   24.1491 C   0  0  0  0  0  0  0  0  0  0  0  0
    5.8315   -1.3993   19.7764 C   0  0  0  0  0  0  0  0  0  0  0  0
   13.7357   -2.6284   22.9974 C   0  0  0  0  0  0  0  0  0  0  0  0
    5.1373   -2.5658   20.4332 C   0  0  0  0  0  0  0  0  0  0  0  0
   10.9615   -2.3280   22.9017 C   0  0  0  0  0  0  0  0  0  0  0  0
    5.1573   -0.5988   18.8598 C   0  0  0  0  0  0  0  0  0  0  0  0
    8.9295   -1.3298   21.7620 C   0  0  0  0  0  0  0  0  0  0  0  0
    7.8690   -1.7851   21.0643 N   0  0  0  0  0  0  0  0  0  0  0  0
    9.4574   -0.2389   21.5995 O   0  0  0  0  0  0  0  0  0  0  0  0
    7.1555   -1.0491   20.0895 C   0  0  0  0  0  0  0  0  0  0  0  0
    9.4570   -2.2906   22.8511 C   0  0  0  0  0  0  0  0  0  0  0  0
    7.7171    0.0680   19.4747 C   0  0  0  0  0  0  0  0  0  0  0  0
   13.0992   -2.4068   21.7861 C   0  0  0  0  0  0  0  0  0  0  0  0
   11.6054   -2.5034   24.1205 C   0  0  0  0  0  0  0  0  0  0  0  0
    5.7967    0.4923   18.3073 C   0  0  0  0  0  0  0  0  0  0  0  0
    8.9248   -1.9238   24.0526 F   0  0  0  0  0  0  0  0  0  0  0  0
   13.7609   -2.8795   25.6853 Cl  0  0  0  0  0  0  0  0  0  0  0  0
  6  4  1  0
  7  5  1  0
  8  2  2  0
  9  5  1  0
 11 10  1  0
 12 10  2  0
 13 11  1  0
 13  5  2  0
 14 10  1  0
 14  8  1  0
 14  1  1  0
 15 13  1  0
 15  3  2  0
 16  6  2  0
 16  2  1  0
 17  8  1  0
 17  4  2  0
 18  9  2  0
 18  3  1  0
 19 14  1  0
 20  4  1  0
M  END
>  <cid>  (62) 
JAN-GHE-83b26c96-23

>  <score>  (62) 
-17.3603

$$$$
x0161
     RDKit          3D

 14 14  0  0  0  0  0  0  0  0999 V2000
    8.6112    7.4515   22.4511 C   0  0  0  0  0  0  0  0  0  0  0  0
   10.4628    5.9487   22.6644 C   0  0  0  0  0  0  0  0  0  0  0  0
   11.0448    4.5373   22.6919 C   0  0  0  0  0  0  0  0  0  0  0  0
   12.4086    4.3443   22.8566 C   0  0  0  0  0  0  0  0  0  0  0  0
   12.9247    3.0556   22.8911 C   0  0  0  0  0  0  0  0  0  0  0  0
   12.0685    1.9684   22.7578 C   0  0  0  0  0  0  0  0  0  0  0  0
   10.7041    2.1644   22.5929 C   0  0  0  0  0  0  0  0  0  0  0  0
   10.1958    3.4491   22.5633 C   0  0  0  0  0  0  0  0  0  0  0  0
   11.7320   -0.7773   21.9027 N   0  0  0  0  0  0  0  0  0  0  0  0
    9.0813    6.1266   22.5030 O   0  0  0  0  0  0  0  0  0  0  0  0
   11.1844    6.8785   22.7592 O   0  0  0  0  0  0  0  0  0  0  0  0
   12.8626   -0.1935   24.1867 O   0  0  0  0  0  0  0  0  0  0  0  0
   14.1060    0.2616   22.3290 O   0  0  0  0  0  0  0  0  0  0  0  0
   12.7218    0.2811   22.8056 S   0  0  0  0  0  0  0  0  0  0  0  0
  3  2  1  0
  4  3  2  0
  5  4  1  0
  6  5  2  0
  7  6  1  0
  8  7  2  0
  8  3  1  0
 10  2  1  0
 10  1  1  0
 11  2  2  0
 14 13  2  0
 14  9  1  0
 14  6  1  0
 14 12  2  0
M  END
>  <cid>  (63) 
MAT-POS-7dfc56d9-1

>  <score>  (63) 
-8.63427

$$$$
x10314
     RDKit          3D

 19 20  0  0  0  0  0  0  0  0999 V2000
   13.9777   -2.8055   26.0651 N   0  0  0  0  0  0  0  0  0  0  0  0
   13.5008   -2.6383   25.0423 C   0  0  0  0  0  0  0  0  0  0  0  0
   12.8560   -2.4256   23.7728 C   0  0  0  0  0  0  0  0  0  0  0  0
   13.5819   -2.1503   22.6152 C   0  0  0  0  0  0  0  0  0  0  0  0
   13.0085   -1.9125   21.4284 N   0  0  0  0  0  0  0  0  0  0  0  0
   11.6704   -1.9828   21.3673 C   0  0  0  0  0  0  0  0  0  0  0  0
   11.4680   -2.4718   23.6797 C   0  0  0  0  0  0  0  0  0  0  0  0
   10.8519   -2.2770   22.4484 C   0  0  0  0  0  0  0  0  0  0  0  0
    9.3730   -2.5317   22.2680 C   0  0  0  0  0  0  0  0  0  0  0  0
    8.7494   -1.3705   21.5191 C   0  0  0  0  0  0  0  0  0  0  0  0
    9.2027   -0.2374   21.6079 O   0  0  0  0  0  0  0  0  0  0  0  0
    7.5705   -1.6102   20.9438 N   0  0  0  0  0  0  0  0  0  0  0  0
    7.0227   -0.8638   19.8764 C   0  0  0  0  0  0  0  0  0  0  0  0
    5.8464   -1.3205   19.2777 C   0  0  0  0  0  0  0  0  0  0  0  0
    5.1006   -2.5173   19.8115 C   0  0  0  0  0  0  0  0  0  0  0  0
    7.6357    0.2845   19.3644 C   0  0  0  0  0  0  0  0  0  0  0  0
    7.1129    1.0201   18.3788 N   0  0  0  0  0  0  0  0  0  0  0  0
    5.9490    0.6111   17.8618 C   0  0  0  0  0  0  0  0  0  0  0  0
    5.3008   -0.5408   18.2630 C   0  0  0  0  0  0  0  0  0  0  0  0
  2  1  3  0
  3  2  1  0
  4  3  2  0
  5  4  1  0
  6  5  2  0
  7  3  1  0
  8  7  2  0
  8  6  1  0
  8  9  1  0
 10  9  1  0
 10 11  2  0
 12 10  1  0
 13 12  1  0
 14 13  2  0
 14 15  1  0
 16 13  1  0
 17 16  2  0
 18 17  1  0
 19 14  1  0
 19 18  2  0
M  END
>  <cid>  (64) 
TRY-UNI-2eddb1ff-1

>  <score>  (64) 
102.587

$$$$
x10723
     RDKit          3D

 18 19  0  0  0  0  0  0  0  0999 V2000
   11.5227   -2.2214   21.7638 C   0  0  0  0  0  0  0  0  0  0  0  0
    7.0266    0.9853   18.6321 N   0  0  0  0  0  0  0  0  0  0  0  0
   11.4833   -2.1481   24.1313 C   0  0  0  0  0  0  0  0  0  0  0  0
   12.8599   -2.3010   21.7197 N   0  0  0  0  0  0  0  0  0  0  0  0
    5.8492   -1.3500   19.6654 C   0  0  0  0  0  0  0  0  0  0  0  0
   12.8591   -2.2141   24.1024 C   0  0  0  0  0  0  0  0  0  0  0  0
    5.1738   -2.5606   20.2567 C   0  0  0  0  0  0  0  0  0  0  0  0
   10.7836   -2.1565   22.9323 C   0  0  0  0  0  0  0  0  0  0  0  0
    5.1820   -0.5437   18.7492 C   0  0  0  0  0  0  0  0  0  0  0  0
    8.7541   -1.1810   21.8445 C   0  0  0  0  0  0  0  0  0  0  0  0
    7.8461   -1.7154   21.0072 N   0  0  0  0  0  0  0  0  0  0  0  0
    9.1260   -0.0156   21.7800 O   0  0  0  0  0  0  0  0  0  0  0  0
    7.1479   -0.9590   20.0437 C   0  0  0  0  0  0  0  0  0  0  0  0
    9.2739   -2.1289   22.9076 C   0  0  0  0  0  0  0  0  0  0  0  0
    7.6865    0.2096   19.5008 C   0  0  0  0  0  0  0  0  0  0  0  0
   13.5219   -2.3147   22.8822 C   0  0  0  0  0  0  0  0  0  0  0  0
    5.7998    0.5933   18.2636 C   0  0  0  0  0  0  0  0  0  0  0  0
   13.7487   -2.0555   25.5908 Cl  0  0  0  0  0  0  0  0  0  0  0  0
  4  1  2  0
  6  3  1  0
  7  5  1  0
  8  3  2  0
  8  1  1  0
  9  5  1  0
 11 10  1  0
 12 10  2  0
 13 11  1  0
 13  5  2  0
 14 10  1  0
 14  8  1  0
 15 13  1  0
 15  2  2  0
 16  6  2  0
 16  4  1  0
 17  9  2  0
 17  2  1  0
  6 18  1  0
M  END
>  <cid>  (65) 
TRY-UNI-2eddb1ff-2

>  <score>  (65) 
222.257

$$$$
x10900
     RDKit          3D

 19 20  0  0  0  0  0  0  0  0999 V2000
   12.2553    2.8439   22.1997 N   0  0  0  0  0  0  0  0  0  0  0  0
   10.5827    7.6465   24.8296 N   0  0  0  0  0  0  0  0  0  0  0  0
   12.1358    5.2724   22.2854 C   0  0  1  0  0  0  0  0  0  0  0  0
    9.4739    8.0301   24.1833 C   0  0  0  0  0  0  0  0  0  0  0  0
    9.6725    1.6371   22.7964 C   0  0  0  0  0  0  0  0  0  0  0  0
   11.9336    3.9119   22.9578 C   0  0  0  0  0  0  0  0  0  0  0  0
   11.0047   -0.3886   23.4715 C   0  0  0  0  0  0  0  0  0  0  0  0
   12.2066   -1.0636   23.5471 C   0  0  0  0  0  0  0  0  0  0  0  0
   13.3755    0.7357   22.7573 C   0  0  0  0  0  0  0  0  0  0  0  0
   11.4107    6.7975   24.2041 C   0  0  0  0  0  0  0  0  0  0  0  0
   10.0560    6.7144   22.2642 C   0  0  0  0  0  0  0  0  0  0  0  0
   11.1981    6.2867   22.9300 C   0  0  0  0  0  0  0  0  0  0  0  0
    9.1943    7.5880   22.8928 C   0  0  0  0  0  0  0  0  0  0  0  0
   13.6025    5.7047   22.2884 C   0  0  0  0  0  0  0  0  0  0  0  0
   13.3794   -0.5308   23.1841 N   0  0  0  0  0  0  0  0  0  0  0  0
   11.4998    3.8132   24.0972 O   0  0  0  0  0  0  0  0  0  0  0  0
   10.9826    0.9228   23.0095 C   0  0  0  0  0  0  0  0  0  0  0  0
   12.2181    1.5077   22.6595 C   0  0  0  0  0  0  0  0  0  0  0  0
    7.7730    8.1372   22.0462 Cl  0  0  0  0  0  0  0  0  0  0  0  0
  4  2  2  0
  6  1  1  0
  6  3  1  0
  8  7  2  0
 10  2  1  0
 12  3  1  0
 12 11  1  0
 12 10  2  0
 13 11  2  0
 13  4  1  0
  3 14  1  1
 15  9  2  0
 15  8  1  0
 16  6  2  0
 17  7  1  0
 17  5  1  0
 18 17  2  0
 18  9  1  0
 18  1  1  0
 19 13  1  0
M  END
>  <cid>  (66) 
TRY-UNI-2eddb1ff-3

>  <score>  (66) 
228.102

$$$$
x10789
     RDKit          3D

 24 26  0  0  0  0  0  0  0  0999 V2000
    7.4293   -6.4043   22.1534 N   0  0  0  0  0  0  0  0  0  0  0  0
   11.9186    3.3000   24.0755 N   0  0  0  0  0  0  0  0  0  0  0  0
    5.8925   -4.1299   21.5596 C   0  0  0  0  0  0  0  0  0  0  0  0
   13.0901   -0.2471   23.8560 C   0  0  0  0  0  0  0  0  0  0  0  0
   12.8658    1.6909   22.4692 O   0  0  0  0  0  0  0  0  0  0  0  0
   10.3356   -0.6570   23.6385 C   0  0  0  0  0  0  0  0  0  0  0  0
    5.6257   -5.3611   20.9676 C   0  0  0  0  0  0  0  0  0  0  0  0
   10.9283    0.4526   23.0451 C   0  0  0  0  0  0  0  0  0  0  0  0
    8.6668   -2.3734   22.8992 C   0  0  0  0  0  0  0  0  0  0  0  0
    6.9713   -4.0678   22.4669 C   0  0  0  0  0  0  0  0  0  0  0  0
    7.6914   -5.2299   22.7359 C   0  0  0  0  0  0  0  0  0  0  0  0
   12.0948    2.8881   22.6481 C   0  0  2  0  0  0  0  0  0  0  0  0
   12.4787   -1.3245   24.4641 C   0  0  0  0  0  0  0  0  0  0  0  0
   11.1209   -1.5425   24.3653 C   0  0  0  0  0  0  0  0  0  0  0  0
   12.2973    0.6368   23.1437 C   0  0  0  0  0  0  0  0  0  0  0  0
   13.0715    4.0624   22.5315 C   0  0  0  0  0  0  0  0  0  0  0  0
    5.0878   -2.9111   21.1858 C   0  0  0  0  0  0  0  0  0  0  0  0
    7.3931   -2.8172   22.9759 N   0  0  0  0  0  0  0  0  0  0  0  0
    9.5884   -3.0414   22.4420 O   0  0  0  0  0  0  0  0  0  0  0  0
   12.4505    5.5479   24.4996 O   0  0  0  0  0  0  0  0  0  0  0  0
    8.8745   -0.9567   23.3979 C   0  0  0  0  0  0  0  0  0  0  0  0
    6.4126   -6.4515   21.2820 C   0  0  0  0  0  0  0  0  0  0  0  0
   12.4817    4.5029   23.8593 C   0  0  0  0  0  0  0  0  0  0  0  0
   13.4408   -2.4136   25.4215 Cl  0  0  0  0  0  0  0  0  0  0  0  0
  7  3  1  0
  8  6  1  0
 10  3  2  0
 11 10  1  0
 11  1  2  0
 12  5  1  1
 12  2  1  0
 13  4  2  0
 14  6  2  0
 14 13  1  0
 15  8  2  0
 15  5  1  0
 15  4  1  0
 16 12  1  0
  3 17  1  0
 10 18  1  0
 18  9  1  0
 19  9  2  0
 21  9  1  0
  6 21  1  0
 22  7  2  0
 22  1  1  0
 23 16  1  0
 23  2  1  0
 23 20  2  0
 24 13  1  0
M  END
>  <cid>  (67) 
TRY-UNI-2eddb1ff-7

>  <score>  (67) 
100.033

$$$$
x10466
     RDKit          3D

 20 22  0  0  0  0  0  0  0  0999 V2000
    8.6283   -0.0604   21.4244 O   0  0  0  0  0  0  0  0  0  0  0  0
    8.0749   -1.1463   21.2731 C   0  0  0  0  0  0  0  0  0  0  0  0
    8.2218   -2.2637   22.2884 C   0  0  0  0  0  0  0  0  0  0  0  0
    9.6816   -2.5062   22.5895 C   0  0  0  0  0  0  0  0  0  0  0  0
   10.0984   -2.8362   23.8729 C   0  0  0  0  0  0  0  0  0  0  0  0
   11.4430   -2.8122   24.2101 C   0  0  0  0  0  0  0  0  0  0  0  0
   12.3953   -2.4767   23.2572 C   0  0  0  0  0  0  0  0  0  0  0  0
   10.6421   -2.2293   21.6214 C   0  0  0  0  0  0  0  0  0  0  0  0
   11.9766   -2.2161   21.9681 C   0  0  0  0  0  0  0  0  0  0  0  0
   13.1625   -1.8776   20.7360 Cl  0  0  0  0  0  0  0  0  0  0  0  0
    7.2725   -1.4282   20.2310 N   0  0  0  0  0  0  0  0  0  0  0  0
    6.8408   -0.3940   19.4099 N   0  0  0  0  0  0  0  0  0  0  0  0
    5.5559    0.1450   19.3989 C   0  0  0  0  0  0  0  0  0  0  0  0
    5.6381    1.2024   18.4920 C   0  0  0  0  0  0  0  0  0  0  0  0
    6.9207    1.2699   17.9367 N   0  0  0  0  0  0  0  0  0  0  0  0
    7.5872    0.3066   18.5212 C   0  0  0  0  0  0  0  0  0  0  0  0
    4.4365   -0.0637   20.1944 C   0  0  0  0  0  0  0  0  0  0  0  0
    3.3726    0.8203   20.0547 C   0  0  0  0  0  0  0  0  0  0  0  0
    3.4327    1.8780   19.1437 C   0  0  0  0  0  0  0  0  0  0  0  0
    4.5625    2.0785   18.3554 C   0  0  0  0  0  0  0  0  0  0  0  0
  2  1  2  0
  3  2  1  0
  4  3  1  0
  5  4  2  0
  6  5  1  0
  7  6  2  0
  8  4  1  0
  9  8  2  0
  9  7  1  0
 10  9  1  0
 11  2  1  0
 12 11  1  0
 13 12  1  0
 14 13  2  0
 15 14  1  0
 16 15  2  0
 16 12  1  0
 13 17  1  0
 18 17  2  0
 19 18  1  0
 20 19  2  0
 14 20  1  0
M  END
>  <cid>  (68) 
JAN-GHE-5a013bed-2

>  <score>  (68) 
-13.6034

$$$$
x10604
     RDKit          3D

 17 18  0  0  0  0  0  0  0  0999 V2000
    6.6156    0.8490   21.7172 O   0  0  0  0  0  0  0  0  0  0  0  0
    6.8008    0.8337   20.5140 C   0  0  0  0  0  0  0  0  0  0  0  0
    6.3061    1.6327   19.5533 N   0  0  0  0  0  0  0  0  0  0  0  0
    6.6905    1.2454   18.2882 N   0  0  0  0  0  0  0  0  0  0  0  0
    7.4330    0.2048   18.4841 C   0  0  0  0  0  0  0  0  0  0  0  0
    7.5394   -0.0861   19.8086 N   0  0  0  0  0  0  0  0  0  0  0  0
    8.2906   -1.1025   20.3738 N   0  0  0  0  0  0  0  0  0  0  0  0
    9.1266   -0.8310   21.3968 C   0  0  0  0  0  0  0  0  0  0  0  0
    9.5302    0.2989   21.6665 O   0  0  0  0  0  0  0  0  0  0  0  0
    9.5068   -2.0279   22.2455 C   0  0  0  0  0  0  0  0  0  0  0  0
   11.0037   -2.1389   22.4374 C   0  0  0  0  0  0  0  0  0  0  0  0
   11.5269   -2.3838   23.7036 C   0  0  0  0  0  0  0  0  0  0  0  0
   12.8804   -2.6225   23.8489 C   0  0  0  0  0  0  0  0  0  0  0  0
   13.5081   -2.9674   25.4395 Cl  0  0  0  0  0  0  0  0  0  0  0  0
   11.8710   -2.0866   21.3518 C   0  0  0  0  0  0  0  0  0  0  0  0
   13.2289   -2.3236   21.5164 C   0  0  0  0  0  0  0  0  0  0  0  0
   13.7413   -2.6085   22.7720 C   0  0  0  0  0  0  0  0  0  0  0  0
  2  1  2  0
  3  2  1  0
  4  3  1  0
  5  4  2  0
  6  5  1  0
  6  2  1  0
  7  6  1  0
  8  7  1  0
  9  8  2  0
 10  8  1  0
 11 10  1  0
 12 11  2  0
 13 12  1  0
 14 13  1  0
 15 11  1  0
 16 15  2  0
 17 16  1  0
 17 13  2  0
M  END
>  <cid>  (69) 
JAN-GHE-5a013bed-4

>  <score>  (69) 
-11.399

$$$$
x11041
     RDKit          3D

 19 20  0  0  0  0  0  0  0  0999 V2000
    7.4297    1.5001   20.7250 N   0  0  0  0  0  0  0  0  0  0  0  0
    5.4419   -0.3509   17.6167 C   0  0  0  0  0  0  0  0  0  0  0  0
    8.6461    1.0970   21.1741 C   0  0  0  0  0  0  0  0  0  0  0  0
   10.5761   -0.0336   23.1959 C   0  0  0  0  0  0  0  0  0  0  0  0
    9.3426    1.9326   22.2322 C   0  0  0  0  0  0  0  0  0  0  0  0
   12.9663   -0.0053   23.5214 C   0  0  0  0  0  0  0  0  0  0  0  0
   13.0071    1.2860   23.0188 C   0  0  0  0  0  0  0  0  0  0  0  0
   11.8399    1.9139   22.6111 C   0  0  0  0  0  0  0  0  0  0  0  0
    6.4159    1.4955   18.5419 C   0  0  0  0  0  0  0  0  0  0  0  0
    6.3148   -0.5376   19.8376 C   0  0  0  0  0  0  0  0  0  0  0  0
    6.6951    0.7997   19.7163 C   0  0  0  0  0  0  0  0  0  0  0  0
    5.6826   -1.1128   18.7412 C   0  0  0  0  0  0  0  0  0  0  0  0
    6.5357   -1.3327   21.0999 C   0  0  0  0  0  0  0  0  0  0  0  0
    6.7763    2.6636   21.3269 C   0  0  0  0  0  0  0  0  0  0  0  0
    5.7930    0.9355   17.5010 N   0  0  0  0  0  0  0  0  0  0  0  0
    9.1819    0.0784   20.7524 O   0  0  0  0  0  0  0  0  0  0  0  0
   11.7425   -0.6387   23.6120 C   0  0  0  0  0  0  0  0  0  0  0  0
   10.6151    1.2637   22.6971 C   0  0  0  0  0  0  0  0  0  0  0  0
   11.6471   -2.1917   24.3864 Cl  0  0  0  0  0  0  0  0  0  0  0  0
  3  1  1  0
  5  3  1  0
  7  6  2  0
  8  7  1  0
 11 10  2  0
 11  9  1  0
 11  1  1  0
 12 10  1  0
 12  2  2  0
 13 10  1  0
 14  1  1  0
 15  2  1  0
 15  9  2  0
 16  3  2  0
 17  6  1  0
 17  4  2  0
 18  5  1  0
 18  8  2  0
 18  4  1  0
 17 19  1  0
M  END
>  <cid>  (70) 
EDG-MED-0da5ad92-1

>  <score>  (70) 
-11.8085

$$$$
x10201
     RDKit          3D

 17 18  0  0  0  0  0  0  0  0999 V2000
    8.4991    0.6955   21.1091 O   0  0  0  0  0  0  0  0  0  0  0  0
    8.5494   -0.5091   20.9014 C   0  0  0  0  0  0  0  0  0  0  0  0
    9.3572   -1.4468   21.7766 C   0  0  0  0  0  0  0  0  0  0  0  0
   10.7807   -0.9676   21.9315 C   0  0  0  0  0  0  0  0  0  0  0  0
   11.8565   -1.8023   21.6555 C   0  0  0  0  0  0  0  0  0  0  0  0
   13.1538   -1.3968   21.9222 C   0  0  0  0  0  0  0  0  0  0  0  0
   13.4003   -0.1427   22.4582 C   0  0  0  0  0  0  0  0  0  0  0  0
   11.0321    0.3002   22.4421 C   0  0  0  0  0  0  0  0  0  0  0  0
   12.3299    0.6900   22.7005 C   0  0  0  0  0  0  0  0  0  0  0  0
   12.6200    2.2945   23.3006 Cl  0  0  0  0  0  0  0  0  0  0  0  0
    7.8730   -1.1072   19.9167 N   0  0  0  0  0  0  0  0  0  0  0  0
    7.0099   -0.4494   19.0279 C   0  0  0  0  0  0  0  0  0  0  0  0
    7.2583    0.8714   18.6642 C   0  0  0  0  0  0  0  0  0  0  0  0
    6.4298    1.5920   17.9063 N   0  0  0  0  0  0  0  0  0  0  0  0
    5.3091    0.9980   17.4821 C   0  0  0  0  0  0  0  0  0  0  0  0
    4.9786   -0.3084   17.7765 C   0  0  0  0  0  0  0  0  0  0  0  0
    5.8417   -1.0414   18.5679 C   0  0  0  0  0  0  0  0  0  0  0  0
  2  1  2  0
  3  2  1  0
  4  3  1  0
  5  4  2  0
  6  5  1  0
  7  6  2  0
  8  4  1  0
  9  8  2  0
  9  7  1  0
 10  9  1  0
 11  2  1  0
 12 11  1  0
 13 12  2  0
 14 13  1  0
 15 14  2  0
 16 15  1  0
 17 16  2  0
 17 12  1  0
M  END
>  <cid>  (71) 
EDG-MED-0da5ad92-2

>  <score>  (71) 
-15.0337

$$$$
x11562
     RDKit          3D

 23 24  0  0  0  0  0  0  0  0999 V2000
    8.2902    1.6026   21.2635 O   0  0  0  0  0  0  0  0  0  0  0  0
    8.3220    0.3859   21.4375 C   0  0  0  0  0  0  0  0  0  0  0  0
    7.6381   -0.4936   20.6806 N   0  0  0  0  0  0  0  0  0  0  0  0
    6.9068   -0.1444   19.5200 C   0  0  0  0  0  0  0  0  0  0  0  0
    5.7939   -0.9099   19.1431 C   0  0  0  0  0  0  0  0  0  0  0  0
    5.3190   -2.0844   19.9618 C   0  0  0  0  0  0  0  0  0  0  0  0
    5.0889   -0.4984   18.0155 C   0  0  0  0  0  0  0  0  0  0  0  0
    5.4915    0.6303   17.3323 C   0  0  0  0  0  0  0  0  0  0  0  0
    6.5464    1.3737   17.6874 N   0  0  0  0  0  0  0  0  0  0  0  0
    7.2369    0.9800   18.7636 C   0  0  0  0  0  0  0  0  0  0  0  0
    9.1612   -0.2504   22.5289 C   0  0  0  0  0  0  0  0  0  0  0  0
   10.4819    0.4737   22.6540 C   0  0  0  0  0  0  0  0  0  0  0  0
   10.5234    1.7959   23.0807 C   0  0  0  0  0  0  0  0  0  0  0  0
   11.7370    2.4114   23.2926 C   0  0  0  0  0  0  0  0  0  0  0  0
   11.7578    4.0707   23.8391 Cl  0  0  0  0  0  0  0  0  0  0  0  0
   12.9300    1.7547   23.0653 C   0  0  0  0  0  0  0  0  0  0  0  0
   12.9048    0.4499   22.5968 C   0  0  0  0  0  0  0  0  0  0  0  0
   11.6856   -0.1906   22.4200 C   0  0  0  0  0  0  0  0  0  0  0  0
   11.5649   -1.5304   22.1524 O   0  0  0  0  0  0  0  0  0  0  0  0
   12.7463   -2.2916   21.8481 C   0  0  0  0  0  0  0  0  0  0  0  0
   13.5865   -2.3615   23.1008 C   0  0  0  0  0  0  0  0  0  0  0  0
   12.8123   -2.8577   24.3231 C   0  0  0  0  0  0  0  0  0  0  0  0
   13.6388   -2.9074   25.5883 C   0  0  0  0  0  0  0  0  0  0  0  0
  2  1  2  0
  3  2  1  0
  4  3  1  0
  5  4  2  0
  5  6  1  0
  7  5  1  0
  8  7  2  0
  9  8  1  0
 10  9  2  0
 10  4  1  0
 11  2  1  0
 12 11  1  0
 13 12  2  0
 14 13  1  0
 15 14  1  0
 16 14  2  0
 17 16  1  0
 18 12  1  0
 18 17  2  0
 18 19  1  0
 20 19  1  0
 21 20  1  0
 22 21  1  0
 23 22  1  0
M  END
>  <cid>  (72) 
EDG-MED-0da5ad92-7

>  <score>  (72) 
-15.9518

$$$$
x10723
     RDKit          3D

 18 19  0  0  0  0  0  0  0  0999 V2000
   11.7765   -1.8352   21.6313 C   0  0  0  0  0  0  0  0  0  0  0  0
    6.4795    1.5117   17.6998 N   0  0  0  0  0  0  0  0  0  0  0  0
   11.0324    0.2366   22.5065 C   0  0  0  0  0  0  0  0  0  0  0  0
   13.0683   -1.5231   21.8045 N   0  0  0  0  0  0  0  0  0  0  0  0
    5.6937   -0.9643   18.7765 C   0  0  0  0  0  0  0  0  0  0  0  0
   12.3561    0.5785   22.6770 C   0  0  0  0  0  0  0  0  0  0  0  0
    5.2279   -2.2564   19.3967 C   0  0  0  0  0  0  0  0  0  0  0  0
   10.7216   -1.0069   21.9734 C   0  0  0  0  0  0  0  0  0  0  0  0
    4.8460   -0.2259   17.9575 C   0  0  0  0  0  0  0  0  0  0  0  0
    8.5214   -0.5107   20.8933 C   0  0  0  0  0  0  0  0  0  0  0  0
    7.8484   -1.1157   19.8972 N   0  0  0  0  0  0  0  0  0  0  0  0
    8.5086    0.7005   21.0761 O   0  0  0  0  0  0  0  0  0  0  0  0
    6.9710   -0.4297   19.0326 C   0  0  0  0  0  0  0  0  0  0  0  0
    9.2875   -1.4493   21.8048 C   0  0  0  0  0  0  0  0  0  0  0  0
    7.3115    0.8038   18.4732 C   0  0  0  0  0  0  0  0  0  0  0  0
   13.3550   -0.3310   22.3400 C   0  0  0  0  0  0  0  0  0  0  0  0
    5.2745    0.9845   17.4460 C   0  0  0  0  0  0  0  0  0  0  0  0
   12.7565    2.1886   23.2054 Cl  0  0  0  0  0  0  0  0  0  0  0  0
  4  1  2  0
  6  3  1  0
  7  5  1  0
  8  3  2  0
  8  1  1  0
  9  5  1  0
 11 10  1  0
 12 10  2  0
 13 11  1  0
 13  5  2  0
 14 10  1  0
 14  8  1  0
 15 13  1  0
 15  2  2  0
 16  6  2  0
 16  4  1  0
 17  9  2  0
 17  2  1  0
  6 18  1  0
M  END
>  <cid>  (73) 
EDG-MED-0da5ad92-8

>  <score>  (73) 
-15.906

$$$$
x10422
     RDKit          3D

 20 21  0  0  0  0  0  0  0  0999 V2000
   13.5787   -2.6996   20.7603 Cl  0  0  0  0  0  0  0  0  0  0  0  0
   12.5421   -2.2691   22.0915 C   0  0  0  0  0  0  0  0  0  0  0  0
   13.1066   -1.9836   23.3199 C   0  0  0  0  0  0  0  0  0  0  0  0
   12.2668   -1.7704   24.4016 C   0  0  0  0  0  0  0  0  0  0  0  0
   10.8912   -1.8201   24.2394 C   0  0  0  0  0  0  0  0  0  0  0  0
   11.1757   -2.2926   21.9050 C   0  0  0  0  0  0  0  0  0  0  0  0
   10.3298   -2.0612   22.9873 C   0  0  0  0  0  0  0  0  0  0  0  0
    8.8094   -2.0186   22.7635 C   0  0  0  0  0  0  0  0  0  0  0  0
    8.2612   -3.4568   22.7330 C   0  0  0  0  0  0  0  0  0  0  0  0
    8.0710   -1.2587   23.8807 C   0  0  0  0  0  0  0  0  0  0  0  0
    8.5198   -1.2676   21.4465 C   0  0  0  0  0  0  0  0  0  0  0  0
    9.3340   -0.4780   20.9921 O   0  0  0  0  0  0  0  0  0  0  0  0
    7.3188   -1.4980   20.8673 N   0  0  0  0  0  0  0  0  0  0  0  0
    6.8400   -0.8020   19.7333 C   0  0  0  0  0  0  0  0  0  0  0  0
    5.7178   -1.2937   19.0423 C   0  0  0  0  0  0  0  0  0  0  0  0
    5.0095   -2.5548   19.4631 C   0  0  0  0  0  0  0  0  0  0  0  0
    7.3946    0.4101   19.3275 C   0  0  0  0  0  0  0  0  0  0  0  0
    6.8973    1.1550   18.3353 N   0  0  0  0  0  0  0  0  0  0  0  0
    5.8348    0.6760   17.6836 C   0  0  0  0  0  0  0  0  0  0  0  0
    5.2309   -0.5269   17.9882 C   0  0  0  0  0  0  0  0  0  0  0  0
  2  1  1  0
  3  2  2  0
  4  3  1  0
  5  4  2  0
  6  2  1  0
  7  6  2  0
  7  5  1  0
  8  7  1  0
  8  9  1  0
 10  8  1  0
 11  8  1  0
 12 11  2  0
 13 11  1  0
 14 13  1  0
 15 14  2  0
 15 16  1  0
 17 14  1  0
 18 17  2  0
 19 18  1  0
 20 19  2  0
 20 15  1  0
M  END
>  <cid>  (74) 
EDG-MED-0da5ad92-10

>  <score>  (74) 
-16.7288

$$$$
x10392
     RDKit          3D

 20 22  0  0  0  0  0  0  0  0999 V2000
   12.5369    2.8797   23.3841 Cl  0  0  0  0  0  0  0  0  0  0  0  0
   12.2933    1.2272   22.8967 C   0  0  0  0  0  0  0  0  0  0  0  0
   13.3741    0.3711   22.8455 C   0  0  0  0  0  0  0  0  0  0  0  0
   13.1810   -0.9153   22.3649 C   0  0  0  0  0  0  0  0  0  0  0  0
   11.9188   -1.3305   21.9747 C   0  0  0  0  0  0  0  0  0  0  0  0
   11.0269    0.8212   22.5331 C   0  0  0  0  0  0  0  0  0  0  0  0
   10.8236   -0.4828   22.0960 C   0  0  0  0  0  0  0  0  0  0  0  0
    9.4051   -1.0348   21.9924 C   0  0  0  0  0  0  0  0  0  0  0  0
    8.6562   -1.5963   23.1981 C   0  0  0  0  0  0  0  0  0  0  0  0
    9.1053   -2.5249   22.1243 C   0  0  0  0  0  0  0  0  0  0  0  0
    8.5407   -0.2367   20.9971 C   0  0  0  0  0  0  0  0  0  0  0  0
    8.4751    0.9830   21.0691 O   0  0  0  0  0  0  0  0  0  0  0  0
    7.8664   -0.9345   20.0635 N   0  0  0  0  0  0  0  0  0  0  0  0
    6.9483   -0.3421   19.1661 C   0  0  0  0  0  0  0  0  0  0  0  0
    5.6862   -0.9288   18.9640 C   0  0  0  0  0  0  0  0  0  0  0  0
    5.2681   -2.1890   19.6765 C   0  0  0  0  0  0  0  0  0  0  0  0
    7.2432    0.8500   18.5072 C   0  0  0  0  0  0  0  0  0  0  0  0
    6.3875    1.4761   17.6961 N   0  0  0  0  0  0  0  0  0  0  0  0
    5.1929    0.9025   17.5010 C   0  0  0  0  0  0  0  0  0  0  0  0
    4.8096   -0.2791   18.1016 C   0  0  0  0  0  0  0  0  0  0  0  0
  2  1  1  0
  3  2  2  0
  4  3  1  0
  5  4  2  0
  6  2  1  0
  7  6  2  0
  7  5  1  0
  8  7  1  0
  9  8  1  0
 10  9  1  0
 10  8  1  0
  8 11  1  0
 12 11  2  0
 13 11  1  0
 14 13  1  0
 15 14  2  0
 16 15  1  0
 17 14  1  0
 18 17  2  0
 19 18  1  0
 20 19  2  0
 20 15  1  0
M  END
>  <cid>  (75) 
EDG-MED-0da5ad92-11

>  <score>  (75) 
-17.3887

$$$$
x10976
     RDKit          3D

 18 19  0  0  0  0  0  0  0  0999 V2000
   13.7596   -1.9593   25.6865 Cl  0  0  0  0  0  0  0  0  0  0  0  0
   13.0627   -1.7503   24.1057 C   0  0  0  0  0  0  0  0  0  0  0  0
   13.5323   -2.5044   23.0538 C   0  0  0  0  0  0  0  0  0  0  0  0
   13.0054   -2.2813   21.7915 C   0  0  0  0  0  0  0  0  0  0  0  0
   11.9943   -1.3480   21.6107 C   0  0  0  0  0  0  0  0  0  0  0  0
   12.0661   -0.8117   23.9399 C   0  0  0  0  0  0  0  0  0  0  0  0
   11.5051   -0.6165   22.6834 C   0  0  0  0  0  0  0  0  0  0  0  0
   10.3313    0.3209   22.5205 C   0  0  0  0  0  0  0  0  0  0  0  0
    9.2663   -0.3430   21.6726 C   0  0  0  0  0  0  0  0  0  0  0  0
    9.1631   -1.5626   21.6083 O   0  0  0  0  0  0  0  0  0  0  0  0
    8.4846    0.5028   20.9789 N   0  0  0  0  0  0  0  0  0  0  0  0
    7.5538    0.1389   19.9841 C   0  0  0  0  0  0  0  0  0  0  0  0
    7.2339    0.9736   18.9193 C   0  0  0  0  0  0  0  0  0  0  0  0
    6.3027    0.6782   18.0108 N   0  0  0  0  0  0  0  0  0  0  0  0
    5.6464   -0.4823   18.1495 C   0  0  0  0  0  0  0  0  0  0  0  0
    6.8537   -1.0578   20.1005 C   0  0  0  0  0  0  0  0  0  0  0  0
    5.8702   -1.3861   19.1813 C   0  0  0  0  0  0  0  0  0  0  0  0
    5.0744   -2.6635   19.3058 C   0  0  0  0  0  0  0  0  0  0  0  0
  2  1  1  0
  3  2  2  0
  4  3  1  0
  5  4  2  0
  6  2  1  0
  7  5  1  0
  7  6  2  0
  7  8  1  0
  9  8  1  0
 10  9  2  0
 11  9  1  0
 12 11  1  0
 13 12  2  0
 14 13  1  0
 15 14  2  0
 16 12  1  0
 17 15  1  0
 17 16  2  0
 18 17  1  0
M  END
>  <cid>  (76) 
EDG-MED-0da5ad92-12

>  <score>  (76) 
-15.3346

$$$$
x11485
     RDKit          3D

 18 19  0  0  0  0  0  0  0  0999 V2000
   12.7400    2.2500   23.2144 Cl  0  0  0  0  0  0  0  0  0  0  0  0
   12.3695    0.6094   22.7556 C   0  0  0  0  0  0  0  0  0  0  0  0
   13.3902   -0.3179   22.6690 C   0  0  0  0  0  0  0  0  0  0  0  0
   13.0976   -1.5819   22.1769 C   0  0  0  0  0  0  0  0  0  0  0  0
   11.7924   -1.9188   21.8528 C   0  0  0  0  0  0  0  0  0  0  0  0
   11.0662    0.2891   22.4248 C   0  0  0  0  0  0  0  0  0  0  0  0
   10.7612   -0.9998   22.0010 C   0  0  0  0  0  0  0  0  0  0  0  0
    9.3219   -1.4045   21.7893 C   0  0  0  0  0  0  0  0  0  0  0  0
    8.5718   -0.4378   20.8932 C   0  0  0  0  0  0  0  0  0  0  0  0
    8.5955    0.7852   21.0665 O   0  0  0  0  0  0  0  0  0  0  0  0
    7.8325   -1.0376   19.9418 N   0  0  0  0  0  0  0  0  0  0  0  0
    6.9933   -0.4004   19.0281 C   0  0  0  0  0  0  0  0  0  0  0  0
    5.7236   -0.9497   18.7210 C   0  0  0  0  0  0  0  0  0  0  0  0
    5.2033   -2.2111   19.3635 C   0  0  0  0  0  0  0  0  0  0  0  0
    7.3806    0.7824   18.5513 N   0  0  0  0  0  0  0  0  0  0  0  0
    6.5749    1.4992   17.7437 N   0  0  0  0  0  0  0  0  0  0  0  0
    5.3758    1.0231   17.4165 C   0  0  0  0  0  0  0  0  0  0  0  0
    4.9200   -0.1960   17.8797 C   0  0  0  0  0  0  0  0  0  0  0  0
  2  1  1  0
  3  2  2  0
  4  3  1  0
  5  4  2  0
  6  2  1  0
  7  5  1  0
  7  6  2  0
  7  8  1  0
  9  8  1  0
  9 10  2  0
 11  9  1  0
 12 11  1  0
 13 12  2  0
 13 14  1  0
 15 12  1  0
 16 15  2  0
 17 16  1  0
 18 13  1  0
 18 17  2  0
M  END
>  <cid>  (77) 
EDG-MED-0da5ad92-15

>  <score>  (77) 
-16.7865

$$$$
x11013
     RDKit          3D

 18 19  0  0  0  0  0  0  0  0999 V2000
   12.7242    2.1920   23.3090 Cl  0  0  0  0  0  0  0  0  0  0  0  0
   12.3621    0.5912   22.7151 C   0  0  0  0  0  0  0  0  0  0  0  0
   13.3978   -0.2787   22.4527 C   0  0  0  0  0  0  0  0  0  0  0  0
   13.1030   -1.5022   21.8669 C   0  0  0  0  0  0  0  0  0  0  0  0
   11.7893   -1.8523   21.5992 C   0  0  0  0  0  0  0  0  0  0  0  0
   11.0452    0.2527   22.4645 C   0  0  0  0  0  0  0  0  0  0  0  0
   10.7449   -0.9939   21.9191 C   0  0  0  0  0  0  0  0  0  0  0  0
    9.3068   -1.4464   21.8031 C   0  0  0  0  0  0  0  0  0  0  0  0
    8.5035   -0.4574   20.9789 C   0  0  0  0  0  0  0  0  0  0  0  0
    8.5825    0.7538   21.1674 O   0  0  0  0  0  0  0  0  0  0  0  0
    7.7111   -1.0169   20.0369 N   0  0  0  0  0  0  0  0  0  0  0  0
    6.8750   -0.3357   19.1161 C   0  0  0  0  0  0  0  0  0  0  0  0
    5.6616   -0.9174   18.7010 C   0  0  0  0  0  0  0  0  0  0  0  0
    5.1745   -2.2303   19.2606 C   0  0  0  0  0  0  0  0  0  0  0  0
    7.1868    0.9021   18.5600 C   0  0  0  0  0  0  0  0  0  0  0  0
    6.4222    1.5257   17.6781 N   0  0  0  0  0  0  0  0  0  0  0  0
    5.2531    0.9498   17.2713 N   0  0  0  0  0  0  0  0  0  0  0  0
    4.8931   -0.2283   17.7679 C   0  0  0  0  0  0  0  0  0  0  0  0
  2  1  1  0
  3  2  2  0
  4  3  1  0
  5  4  2  0
  6  2  1  0
  7  5  1  0
  7  6  2  0
  7  8  1  0
  9  8  1  0
 10  9  2  0
 11  9  1  0
 12 11  1  0
 13 12  2  0
 14 13  1  0
 15 12  1  0
 16 15  2  0
 17 16  1  0
 18 17  2  0
 18 13  1  0
M  END
>  <cid>  (78) 
EDG-MED-0da5ad92-16

>  <score>  (78) 
-16.4996

$$$$
x10494
     RDKit          3D

 19 20  0  0  0  0  0  0  0  0999 V2000
    6.4465    1.4505   18.7548 N   0  0  0  0  0  0  0  0  0  0  0  0
    7.5419   -1.4965   20.6998 N   0  0  0  0  0  0  0  0  0  0  0  0
    5.6272   -1.1806   19.2225 C   0  0  0  0  0  0  0  0  0  0  0  0
   12.8121   -1.1753   23.1970 C   0  0  0  0  0  0  0  0  0  0  0  0
   10.1244   -1.8871   22.9076 C   0  0  0  0  0  0  0  0  0  0  0  0
    4.9149   -0.3407   18.3752 C   0  0  0  0  0  0  0  0  0  0  0  0
    7.9575   -1.0945   21.9174 C   0  0  0  0  0  0  0  0  0  0  0  0
    6.7856   -0.6765   19.8266 C   0  0  0  0  0  0  0  0  0  0  0  0
    7.1820    0.6588   19.5732 C   0  0  0  0  0  0  0  0  0  0  0  0
   11.9869   -1.2537   24.3065 C   0  0  0  0  0  0  0  0  0  0  0  0
   10.9632   -1.8347   21.8000 C   0  0  0  0  0  0  0  0  0  0  0  0
   10.6554   -1.6165   24.1626 C   0  0  0  0  0  0  0  0  0  0  0  0
   12.2911   -1.5010   21.9626 C   0  0  0  0  0  0  0  0  0  0  0  0
    5.1517   -2.5893   19.4754 C   0  0  0  0  0  0  0  0  0  0  0  0
    8.2750    1.1848   20.1340 N   0  0  0  0  0  0  0  0  0  0  0  0
    7.7696    0.0357   22.3585 O   0  0  0  0  0  0  0  0  0  0  0  0
    8.6526   -2.1717   22.7272 C   0  0  0  0  0  0  0  0  0  0  0  0
    5.3545    0.9443   18.1706 C   0  0  0  0  0  0  0  0  0  0  0  0
   13.3540   -1.6036   20.5877 Cl  0  0  0  0  0  0  0  0  0  0  0  0
  6  3  1  0
  7  2  1  0
  8  3  2  0
  8  2  1  0
  9  8  1  0
  9  1  2  0
 10  4  2  0
 11  5  1  0
 12  5  2  0
 12 10  1  0
 13 11  2  0
 13  4  1  0
 14  3  1  0
 15  9  1  0
 16  7  2  0
 17  7  1  0
  5 17  1  0
 18  6  2  0
 18  1  1  0
 13 19  1  0
M  END
>  <cid>  (79) 
EDG-MED-0da5ad92-18

>  <score>  (79) 
-13.4895

$$$$
x11025
     RDKit          3D

 17 18  0  0  0  0  0  0  0  0999 V2000
   13.4957   -1.4900   25.6444 Cl  0  0  0  0  0  0  0  0  0  0  0  0
   12.8126   -1.7443   24.0639 C   0  0  0  0  0  0  0  0  0  0  0  0
   13.6536   -1.9299   22.9918 C   0  0  0  0  0  0  0  0  0  0  0  0
   13.1020   -2.0401   21.7251 C   0  0  0  0  0  0  0  0  0  0  0  0
   11.7267   -2.0077   21.5574 C   0  0  0  0  0  0  0  0  0  0  0  0
   11.4399   -1.7127   23.9145 C   0  0  0  0  0  0  0  0  0  0  0  0
   10.8822   -1.8782   22.6495 C   0  0  0  0  0  0  0  0  0  0  0  0
    9.3921   -2.0617   22.4969 C   0  0  0  0  0  0  0  0  0  0  0  0
    8.7991   -0.9059   21.7151 C   0  0  0  0  0  0  0  0  0  0  0  0
    9.1621    0.2569   21.8863 O   0  0  0  0  0  0  0  0  0  0  0  0
    7.8462   -1.2608   20.8038 N   0  0  0  0  0  0  0  0  0  0  0  0
    7.2636   -0.3397   19.9103 C   0  0  0  0  0  0  0  0  0  0  0  0
    6.2927   -0.5675   18.9640 C   0  0  0  0  0  0  0  0  0  0  0  0
    5.4798   -1.7817   18.6485 C   0  0  0  0  0  0  0  0  0  0  0  0
    7.6133    1.0054   19.7878 C   0  0  0  0  0  0  0  0  0  0  0  0
    6.9162    1.5828   18.8171 N   0  0  0  0  0  0  0  0  0  0  0  0
    6.1130    0.5977   18.3179 N   0  0  0  0  0  0  0  0  0  0  0  0
  2  1  1  0
  3  2  2  0
  4  3  1  0
  5  4  2  0
  6  2  1  0
  7  5  1  0
  7  6  2  0
  7  8  1  0
  9  8  1  0
 10  9  2  0
 11  9  1  0
 12 11  1  0
 13 12  2  0
 14 13  1  0
 15 12  1  0
 16 15  2  0
 17 16  1  0
 17 13  1  0
M  END
>  <cid>  (80) 
EDG-MED-0da5ad92-21

>  <score>  (80) 
-21.57

$$$$
x10756
     RDKit          3D

 23 25  0  0  0  0  0  0  0  0999 V2000
    6.6014    1.4755   17.7382 N   0  0  0  0  0  0  0  0  0  0  0  0
   12.2384    3.6734   21.5760 N   0  0  0  0  0  0  0  0  0  0  0  0
    5.7095   -0.9498   18.8475 C   0  0  0  0  0  0  0  0  0  0  0  0
   13.2336    0.3633   22.5849 C   0  0  0  0  0  0  0  0  0  0  0  0
   12.0288    2.2360   23.5579 O   0  0  0  0  0  0  0  0  0  0  0  0
   10.7503   -0.8672   22.2024 C   0  0  0  0  0  0  0  0  0  0  0  0
    4.9119   -0.2077   17.9812 C   0  0  0  0  0  0  0  0  0  0  0  0
   10.8392    0.3403   22.8872 C   0  0  0  0  0  0  0  0  0  0  0  0
    8.5628   -0.5068   21.0120 C   0  0  0  0  0  0  0  0  0  0  0  0
    6.9900   -0.4404   19.1410 C   0  0  0  0  0  0  0  0  0  0  0  0
    7.3836    0.7636   18.5574 C   0  0  0  0  0  0  0  0  0  0  0  0
   12.8570    3.1401   22.8019 C   0  0  2  0  0  0  0  0  0  0  0  0
   13.1496   -0.8562   21.9354 C   0  0  0  0  0  0  0  0  0  0  0  0
   11.9178   -1.4640   21.7464 C   0  0  0  0  0  0  0  0  0  0  0  0
   12.0697    0.9606   23.0434 C   0  0  0  0  0  0  0  0  0  0  0  0
   12.6452    4.5240   23.4237 C   0  0  0  0  0  0  0  0  0  0  0  0
    5.1818   -2.2072   19.4873 C   0  0  0  0  0  0  0  0  0  0  0  0
    7.8140   -1.1150   20.0691 N   0  0  0  0  0  0  0  0  0  0  0  0
    8.5746    0.7084   21.1805 O   0  0  0  0  0  0  0  0  0  0  0  0
   12.0169    6.0108   21.4561 O   0  0  0  0  0  0  0  0  0  0  0  0
    9.3953   -1.4485   21.8615 C   0  0  0  0  0  0  0  0  0  0  0  0
    5.3887    0.9800   17.4628 C   0  0  0  0  0  0  0  0  0  0  0  0
   12.2488    4.9442   22.0185 C   0  0  0  0  0  0  0  0  0  0  0  0
  7  3  1  0
  8  6  1  0
 10  3  2  0
 11 10  1  0
 11  1  2  0
 12  5  1  1
 12  2  1  0
 13  4  2  0
 14 13  1  0
 14  6  2  0
 15  8  2  0
 15  5  1  0
 15  4  1  0
 16 12  1  0
  3 17  1  0
 10 18  1  0
 18  9  1  0
 19  9  2  0
 21  9  1  0
  6 21  1  0
 22  7  2  0
 22  1  1  0
 23 16  1  0
 23  2  1  0
 23 20  2  0
M  END
>  <cid>  (81) 
BRU-LEF-c49414a7-1

>  <score>  (81) 
-20.0888

$$$$
x11011
     RDKit          3D

 18 19  0  0  0  0  0  0  0  0999 V2000
   11.5351    0.5401   23.0043 C   0  0  0  0  0  0  0  0  0  0  0  0
    7.0671    1.2435   18.6099 N   0  0  0  0  0  0  0  0  0  0  0  0
   12.7242   -1.3799   21.4347 C   0  0  0  0  0  0  0  0  0  0  0  0
    5.8744   -1.0795   19.6164 C   0  0  0  0  0  0  0  0  0  0  0  0
   13.5194   -0.4616   22.0901 C   0  0  0  0  0  0  0  0  0  0  0  0
    5.1733   -2.3086   20.1367 C   0  0  0  0  0  0  0  0  0  0  0  0
   10.7493   -0.3530   22.2835 C   0  0  0  0  0  0  0  0  0  0  0  0
    5.6329   -0.6470   18.3169 C   0  0  0  0  0  0  0  0  0  0  0  0
    9.3440   -0.2516   22.3004 N   0  0  0  0  0  0  0  0  0  0  0  0
    7.0185   -0.6869   21.8520 C   0  0  0  0  0  0  0  0  0  0  0  0
    8.7554   -2.3140   21.5462 O   0  0  0  0  0  0  0  0  0  0  0  0
    6.7470   -0.3196   20.4120 C   0  0  0  0  0  0  0  0  0  0  0  0
    8.4529   -1.1746   21.8886 C   0  0  0  0  0  0  0  0  0  0  0  0
    7.3123    0.8117   19.8503 C   0  0  0  0  0  0  0  0  0  0  0  0
   12.9153    0.4919   22.8913 C   0  0  0  0  0  0  0  0  0  0  0  0
   11.3473   -1.3315   21.4988 C   0  0  0  0  0  0  0  0  0  0  0  0
    6.2304    0.5125   17.8651 C   0  0  0  0  0  0  0  0  0  0  0  0
   13.4770   -2.7274   20.6383 Cl  0  0  0  0  0  0  0  0  0  0  0  0
  5  3  1  0
  6  4  1  0
  7  1  2  0
  8  4  1  0
  9  7  1  0
 12  4  2  0
 12 10  1  0
 13 11  2  0
 13 10  1  0
 13  9  1  0
 14 12  1  0
 14  2  2  0
 15  1  1  0
 15  5  2  0
 16  7  1  0
 16  3  2  0
 17  8  2  0
 17  2  1  0
  3 18  1  0
M  END
>  <cid>  (82) 
EDJ-MED-49816e9b-1

>  <score>  (82) 
-12.6812

$$$$
x10334
     RDKit          3D

 19 20  0  0  0  0  0  0  0  0999 V2000
   13.6815   -2.4205   25.5417 Cl  0  0  0  0  0  0  0  0  0  0  0  0
   12.8486   -1.5921   24.2542 C   0  0  0  0  0  0  0  0  0  0  0  0
   13.1937   -0.2915   23.9547 C   0  0  0  0  0  0  0  0  0  0  0  0
   12.4641    0.3831   22.9881 C   0  0  0  0  0  0  0  0  0  0  0  0
   11.4344   -0.2583   22.3170 C   0  0  0  0  0  0  0  0  0  0  0  0
   11.8302   -2.2464   23.5880 C   0  0  0  0  0  0  0  0  0  0  0  0
   11.1226   -1.5825   22.5906 C   0  0  0  0  0  0  0  0  0  0  0  0
   10.1073   -2.3292   21.7571 C   0  0  0  0  0  0  0  0  0  0  0  0
    8.8418   -1.5184   21.5529 C   0  0  0  0  0  0  0  0  0  0  0  0
    7.7433   -1.9267   21.9248 O   0  0  0  0  0  0  0  0  0  0  0  0
    9.0292   -0.3233   20.9433 N   0  0  0  0  0  0  0  0  0  0  0  0
    7.9690    0.5793   20.6220 C   0  0  0  0  0  0  0  0  0  0  0  0
    7.8094    1.7439   21.3816 C   0  0  0  0  0  0  0  0  0  0  0  0
    8.7179    2.0781   22.5370 C   0  0  0  0  0  0  0  0  0  0  0  0
    7.1106    0.3195   19.5352 C   0  0  0  0  0  0  0  0  0  0  0  0
    7.2334   -0.9018   18.6747 C   0  0  0  0  0  0  0  0  0  0  0  0
    6.1339    1.1779   19.2174 N   0  0  0  0  0  0  0  0  0  0  0  0
    5.9812    2.2873   19.9530 C   0  0  0  0  0  0  0  0  0  0  0  0
    6.7818    2.6019   21.0247 C   0  0  0  0  0  0  0  0  0  0  0  0
  2  1  1  0
  3  2  2  0
  4  3  1  0
  5  4  2  0
  6  2  1  0
  7  5  1  0
  7  6  2  0
  7  8  1  0
  9  8  1  0
 10  9  2  0
 11  9  1  0
 12 11  1  0
 13 12  2  0
 14 13  1  0
 15 12  1  0
 16 15  1  0
 17 15  2  0
 18 17  1  0
 19 18  2  0
 19 13  1  0
M  END
>  <cid>  (83) 
EDJ-MED-49816e9b-2

>  <score>  (83) 
-10.2906

$$$$
x10371
     RDKit          3D

 22 24  0  0  0  0  0  0  0  0999 V2000
    5.2619    0.8743   17.9341 N   0  0  0  0  0  0  0  0  0  0  0  0
    6.4314   -4.7472   27.1652 N   0  0  0  0  0  0  0  0  0  0  0  0
    5.1755   -2.7068   19.1342 C   0  0  0  0  0  0  0  0  0  0  0  0
    4.9823   -4.2010   24.7365 C   0  0  0  0  0  0  0  0  0  0  0  0
    5.0315   -3.3062   25.7848 O   0  0  0  0  0  0  0  0  0  0  0  0
    4.8282   -5.9927   22.6310 C   0  0  0  0  0  0  0  0  0  0  0  0
    5.6944   -1.3247   18.8091 C   0  0  0  0  0  0  0  0  0  0  0  0
    4.8622   -0.3626   18.2621 C   0  0  0  0  0  0  0  0  0  0  0  0
    6.5500    1.1833   18.1549 C   0  0  0  0  0  0  0  0  0  0  0  0
    7.4632    0.2946   18.6937 C   0  0  0  0  0  0  0  0  0  0  0  0
    4.9175   -5.5607   24.9984 C   0  0  0  0  0  0  0  0  0  0  0  0
    5.9026   -2.9170   27.9905 C   0  0  0  0  0  0  0  0  0  0  0  0
    4.8405   -6.4534   23.9385 C   0  0  0  0  0  0  0  0  0  0  0  0
    6.2322   -3.3990   26.5744 C   0  0  1  0  0  0  0  0  0  0  0  0
    6.4358   -4.2724   28.4272 C   0  0  0  0  0  0  0  0  0  0  0  0
    4.8604   -2.8878   20.6064 C   0  0  0  0  0  0  0  0  0  0  0  0
    5.0256   -4.1527   21.0524 N   0  0  0  0  0  0  0  0  0  0  0  0
    4.4991   -1.9488   21.3134 O   0  0  0  0  0  0  0  0  0  0  0  0
    6.7952   -4.7766   29.4931 O   0  0  0  0  0  0  0  0  0  0  0  0
    4.9147   -4.6292   22.3771 C   0  0  0  0  0  0  0  0  0  0  0  0
    7.0213   -0.9743   19.0249 C   0  0  0  0  0  0  0  0  0  0  0  0
    4.9767   -3.7270   23.4335 C   0  0  0  0  0  0  0  0  0  0  0  0
  5  4  1  0
  7  3  1  0
  8  7  1  0
  8  1  2  0
  9  1  1  0
 10  9  2  0
 11  4  2  0
 13 11  1  0
 13  6  2  0
 14 12  1  0
 14  5  1  6
 14  2  1  0
 15 12  1  0
 15  2  1  0
 16  3  1  0
 17 16  1  0
 18 16  2  0
 19 15  2  0
 20 17  1  0
 20  6  1  0
 21 10  1  0
 21  7  2  0
 22 20  2  0
 22  4  1  0
M  END
>  <cid>  (84) 
RAL-MED-2de63afb-1

>  <score>  (84) 
111.222

$$$$
x10322
     RDKit          3D

 23 25  0  0  0  0  0  0  0  0999 V2000
    7.3978   -4.1902   22.3397 N   0  0  0  0  0  0  0  0  0  0  0  0
   12.0621   -3.1705   24.3347 N   0  0  0  0  0  0  0  0  0  0  0  0
    5.8929   -5.9670   25.8466 N   0  0  0  0  0  0  0  0  0  0  0  0
    8.2482   -0.7365   21.3224 C   0  0  0  0  0  0  0  0  0  0  0  0
   10.1733   -1.7484   22.3484 C   0  0  0  0  0  0  0  0  0  0  0  0
   11.4928   -1.5029   22.6626 O   0  0  0  0  0  0  0  0  0  0  0  0
    4.9241   -6.8616   26.0628 C   0  0  0  0  0  0  0  0  0  0  0  0
    7.5485   -1.9163   21.5386 C   0  0  0  0  0  0  0  0  0  0  0  0
    5.3513   -6.1435   23.5212 C   0  0  0  0  0  0  0  0  0  0  0  0
    5.7824   -5.9569   22.0835 C   0  0  0  0  0  0  0  0  0  0  0  0
    6.2467   -4.5553   21.7344 C   0  0  0  0  0  0  0  0  0  0  0  0
    9.4789   -2.9261   22.5582 C   0  0  0  0  0  0  0  0  0  0  0  0
   13.5559   -1.8764   23.6982 C   0  0  0  0  0  0  0  0  0  0  0  0
    6.0840   -5.6172   24.5696 C   0  0  0  0  0  0  0  0  0  0  0  0
   12.3654   -2.5814   23.0301 C   0  0  1  0  0  0  0  0  0  0  0  0
   13.1635   -2.6742   24.9320 C   0  0  0  0  0  0  0  0  0  0  0  0
    7.5871    0.4369   20.6385 C   0  0  0  0  0  0  0  0  0  0  0  0
    4.1601   -7.4536   25.1383 N   0  0  0  0  0  0  0  0  0  0  0  0
    5.6162   -3.8315   20.9699 O   0  0  0  0  0  0  0  0  0  0  0  0
   13.6336   -2.8405   26.0571 O   0  0  0  0  0  0  0  0  0  0  0  0
    4.3973   -7.0814   23.8752 C   0  0  0  0  0  0  0  0  0  0  0  0
    8.1522   -3.0103   22.1505 C   0  0  0  0  0  0  0  0  0  0  0  0
    9.5711   -0.6598   21.7379 C   0  0  0  0  0  0  0  0  0  0  0  0
  6  5  1  0
  7  3  2  0
  8  4  2  0
  9 10  1  0
 11 10  1  0
 11  1  1  0
 12  5  1  0
 14  9  2  0
 14  3  1  0
 15  2  1  0
 15 13  1  0
 15  6  1  1
 16  2  1  0
 16 13  1  0
 17  4  1  0
 18  7  1  0
 19 11  2  0
 20 16  2  0
 21 18  2  0
 21  9  1  0
 22 12  2  0
 22  1  1  0
 22  8  1  0
 23  5  2  0
 23  4  1  0
M  END
>  <cid>  (85) 
RAL-MED-2de63afb-2

>  <score>  (85) 
108.409

$$$$
x10387
     RDKit          3D

 23 25  0  0  0  0  0  0  0  0999 V2000
    8.4730   -0.8316   21.4389 N   0  0  0  0  0  0  0  0  0  0  0  0
    5.6145   -4.0432   23.6926 N   0  0  0  0  0  0  0  0  0  0  0  0
   12.6495   -2.2544   25.1352 N   0  0  0  0  0  0  0  0  0  0  0  0
    6.6747   -0.8105   19.8308 C   0  0  0  0  0  0  0  0  0  0  0  0
    4.5750   -4.3658   22.7185 C   0  0  1  0  0  0  0  0  0  0  0  0
    5.0284   -4.3050   21.3489 O   0  0  0  0  0  0  0  0  0  0  0  0
   11.7651   -1.4325   24.5571 C   0  0  0  0  0  0  0  0  0  0  0  0
    7.2901   -1.4134   20.9241 C   0  0  0  0  0  0  0  0  0  0  0  0
   12.7243   -1.8014   22.4524 C   0  0  0  0  0  0  0  0  0  0  0  0
   11.7587   -1.1501   23.2001 C   0  0  0  0  0  0  0  0  0  0  0  0
   10.5794   -0.4703   22.5429 C   0  0  0  0  0  0  0  0  0  0  0  0
    5.6285   -3.1495   20.8936 C   0  0  0  0  0  0  0  0  0  0  0  0
    5.7110   -5.3001   24.1643 C   0  0  0  0  0  0  0  0  0  0  0  0
    6.7606   -2.5816   21.4652 C   0  0  0  0  0  0  0  0  0  0  0  0
    4.9499   -0.8108   18.2464 F   0  0  0  0  0  0  0  0  0  0  0  0
    4.6937   -5.8283   23.1611 C   0  0  0  0  0  0  0  0  0  0  0  0
    5.0082   -2.5699   19.7975 C   0  0  0  0  0  0  0  0  0  0  0  0
    5.5595   -1.4122   19.3016 C   0  0  0  0  0  0  0  0  0  0  0  0
   13.6303   -2.6283   22.9843 N   0  0  0  0  0  0  0  0  0  0  0  0
    9.3033   -2.4961   22.7660 O   0  0  0  0  0  0  0  0  0  0  0  0
    6.3914   -5.7870   25.0665 O   0  0  0  0  0  0  0  0  0  0  0  0
   13.5454   -2.7987   24.3081 C   0  0  0  0  0  0  0  0  0  0  0  0
    9.3930   -1.3743   22.2715 C   0  0  0  0  0  0  0  0  0  0  0  0
  5  2  1  0
  5  6  1  6
  7  3  2  0
  8  1  1  0
  8  4  2  0
 10  7  1  0
 10  9  2  0
 10 11  1  0
 12  6  1  0
 13  2  1  0
 14  8  1  0
 14 12  2  0
 16  5  1  0
 16 13  1  0
 17 12  1  0
 18 17  2  0
 18 15  1  0
 18  4  1  0
 19  9  1  0
 21 13  2  0
 22  3  1  0
 22 19  2  0
 23 20  2  0
 23 11  1  0
 23  1  1  0
M  END
>  <cid>  (86) 
RAL-MED-2de63afb-14

>  <score>  (86) 
111.0

$$$$
x10800
     RDKit          3D

 23 25  0  0  0  0  0  0  0  0999 V2000
    6.7219   -1.1863   20.2464 N   0  0  0  0  0  0  0  0  0  0  0  0
    8.0833   -2.2493   21.7054 N   0  0  0  0  0  0  0  0  0  0  0  0
   13.5518   -1.5267   25.1572 C   0  0  0  0  0  0  0  0  0  0  0  0
    6.4129   -0.4468   19.0910 C   0  0  0  0  0  0  0  0  0  0  0  0
    7.1081   -2.8011   25.0050 O   0  0  0  0  0  0  0  0  0  0  0  0
   11.5273   -2.1098   23.3273 C   0  0  0  0  0  0  0  0  0  0  0  0
    5.0843   -0.3953   18.6921 C   0  0  0  0  0  0  0  0  0  0  0  0
    9.0072   -2.4728   22.8253 C   0  0  0  0  0  0  0  0  0  0  0  0
    7.3726   -1.4935   24.4684 C   0  0  0  0  0  0  0  0  0  0  0  0
    7.2984    0.4629   18.5194 C   0  0  0  0  0  0  0  0  0  0  0  0
    5.6329    1.4517   17.3097 C   0  0  0  0  0  0  0  0  0  0  0  0
   12.9178   -2.7475   25.1968 C   0  0  0  0  0  0  0  0  0  0  0  0
   12.1864   -0.8875   23.2910 C   0  0  0  0  0  0  0  0  0  0  0  0
    8.7752   -1.3888   23.8921 C   0  0  0  0  0  0  0  0  0  0  0  0
   11.9099   -3.0387   24.2885 C   0  0  0  0  0  0  0  0  0  0  0  0
   13.1862   -0.5961   24.2048 C   0  0  0  0  0  0  0  0  0  0  0  0
    8.6676   -3.8439   23.4308 C   0  0  0  0  0  0  0  0  0  0  0  0
    7.8630   -1.1225   20.9987 C   0  0  0  0  0  0  0  0  0  0  0  0
    6.9284    1.3986   17.6423 N   0  0  0  0  0  0  0  0  0  0  0  0
    8.5734   -0.1152   21.0737 O   0  0  0  0  0  0  0  0  0  0  0  0
   10.4635   -2.4430   22.3089 C   0  0  0  0  0  0  0  0  0  0  0  0
    4.6839    0.5808   17.7998 C   0  0  0  0  0  0  0  0  0  0  0  0
    7.2648   -3.8306   24.0090 C   0  0  0  0  0  0  0  0  0  0  0  0
  4  1  1  0
  7  4  2  0
  8  2  1  0
  9  5  1  0
 10  4  1  0
 12  3  2  0
 13  6  1  0
 14  9  1  0
 14  8  1  0
 15 12  1  0
 15  6  2  0
 16 13  2  0
 16  3  1  0
 17  8  1  0
 18  1  1  0
 18  2  1  0
 19 11  1  0
 19 10  2  0
 18 20  2  0
  8 21  1  0
  6 21  1  0
 22 11  2  0
 22  7  1  0
 23 17  1  0
 23  5  1  0
M  END
>  <cid>  (87) 
NAU-LAT-445f63e5-6

>  <score>  (87) 
-13.528

$$$$
x3303
     RDKit          3D

 25 28  0  0  0  0  0  0  0  0999 V2000
    7.2654   -1.2705   18.4330 O   0  0  0  0  0  0  0  0  0  0  0  0
    7.1108   -0.2365   19.0872 C   0  0  0  0  0  0  0  0  0  0  0  0
    8.1036    0.3139   19.9534 C   0  0  0  0  0  0  0  0  0  0  0  0
    5.9576    0.4897   18.9631 N   0  0  0  0  0  0  0  0  0  0  0  0
    5.7183    1.6999   19.5952 C   0  0  0  0  0  0  0  0  0  0  0  0
    4.5044    2.3600   19.4184 C   0  0  0  0  0  0  0  0  0  0  0  0
    4.2667    3.5471   20.0886 C   0  0  0  0  0  0  0  0  0  0  0  0
    5.2201    4.0806   20.9280 C   0  0  0  0  0  0  0  0  0  0  0  0
    6.4385    3.4450   21.1037 C   0  0  0  0  0  0  0  0  0  0  0  0
    6.7042    2.2467   20.4424 C   0  0  0  0  0  0  0  0  0  0  0  0
    7.9480    1.4962   20.6069 C   0  0  0  0  0  0  0  0  0  0  0  0
    9.0405    1.9558   21.5377 C   0  0  0  0  0  0  0  0  0  0  0  0
    9.2084    3.1617   21.6871 O   0  0  0  0  0  0  0  0  0  0  0  0
    9.7684    1.0458   22.2234 N   0  0  0  0  0  0  0  0  0  0  0  0
   10.8321    1.4958   23.1348 C   0  0  0  0  0  0  0  0  0  0  0  0
   12.1109    0.7138   22.8905 C   0  0  0  0  0  0  0  0  0  0  0  0
   11.8486   -0.7285   22.9637 N   0  0  0  0  0  0  0  0  0  0  0  0
   10.7862   -1.2028   22.0688 C   0  0  0  0  0  0  0  0  0  0  0  0
    9.5005   -0.4035   22.2718 C   0  0  0  0  0  0  0  0  0  0  0  0
   12.4294   -1.5305   23.9474 C   0  0  0  0  0  0  0  0  0  0  0  0
   11.9745   -2.8382   24.1548 C   0  0  0  0  0  0  0  0  0  0  0  0
   12.5721   -3.6365   25.1210 C   0  0  0  0  0  0  0  0  0  0  0  0
   13.6115   -3.1496   25.8845 C   0  0  0  0  0  0  0  0  0  0  0  0
   14.0659   -1.8603   25.6867 C   0  0  0  0  0  0  0  0  0  0  0  0
   13.4833   -1.0450   24.7285 C   0  0  0  0  0  0  0  0  0  0  0  0
  2  1  2  0
  3  2  1  0
  4  2  1  0
  5  4  1  0
  6  5  2  0
  7  6  1  0
  8  7  2  0
  9  8  1  0
 10  9  2  0
 10  5  1  0
 11 10  1  0
 11  3  2  0
 11 12  1  0
 13 12  2  0
 14 12  1  0
 15 14  1  0
 16 15  1  0
 17 16  1  0
 18 17  1  0
 19 14  1  0
 19 18  1  0
 20 17  1  0
 21 20  2  0
 22 21  1  0
 23 22  2  0
 24 23  1  0
 25 24  2  0
 25 20  1  0
M  END
>  <cid>  (88) 
EDJ-MED-78f964c8-1

>  <score>  (88) 
-16.7466

$$$$
x11313
     RDKit          3D

 26 28  0  0  0  0  0  0  0  0999 V2000
   12.4842    3.3529   22.7696 O   0  0  0  0  0  0  0  0  0  0  0  0
   12.0616    2.2094   22.9631 C   0  0  0  0  0  0  0  0  0  0  0  0
   10.8421    1.7190   22.4348 C   0  0  0  0  0  0  0  0  0  0  0  0
   12.8272    1.2981   23.6363 N   0  0  0  0  0  0  0  0  0  0  0  0
   12.5215   -0.0578   23.7501 C   0  0  0  0  0  0  0  0  0  0  0  0
   11.3377   -0.5656   23.1616 C   0  0  0  0  0  0  0  0  0  0  0  0
   11.0867   -1.9556   23.2210 C   0  0  0  0  0  0  0  0  0  0  0  0
    9.9377   -2.6143   22.5026 C   0  0  0  0  0  0  0  0  0  0  0  0
   11.9854   -2.7710   23.9078 C   0  0  0  0  0  0  0  0  0  0  0  0
   13.1160   -2.2563   24.5088 C   0  0  0  0  0  0  0  0  0  0  0  0
   13.3959   -0.9054   24.4266 C   0  0  0  0  0  0  0  0  0  0  0  0
   10.4365    0.4228   22.5096 C   0  0  0  0  0  0  0  0  0  0  0  0
    9.0533    0.1225   22.0202 C   0  0  0  0  0  0  0  0  0  0  0  0
    8.0724    0.2393   22.7536 O   0  0  0  0  0  0  0  0  0  0  0  0
    8.9418   -0.2617   20.7501 N   0  0  0  0  0  0  0  0  0  0  0  0
    7.6921   -0.7766   20.2079 C   0  0  0  0  0  0  0  0  0  0  0  0
    7.6341   -0.6091   18.7189 C   0  0  0  0  0  0  0  0  0  0  0  0
    7.5245    0.7971   18.4513 O   0  0  0  0  0  0  0  0  0  0  0  0
    6.3692    1.4516   18.7936 C   0  0  0  0  0  0  0  0  0  0  0  0
    6.4526    2.2161   19.9712 C   0  0  0  0  0  0  0  0  0  0  0  0
    7.6740    2.1964   20.5884 O   0  0  0  0  0  0  0  0  0  0  0  0
    7.9794    3.2485   21.5031 C   0  0  0  0  0  0  0  0  0  0  0  0
    5.1806    1.4103   18.0768 C   0  0  0  0  0  0  0  0  0  0  0  0
    4.0850    2.1283   18.5327 C   0  0  0  0  0  0  0  0  0  0  0  0
    4.1701    2.8868   19.6836 C   0  0  0  0  0  0  0  0  0  0  0  0
    5.3458    2.9315   20.4125 C   0  0  0  0  0  0  0  0  0  0  0  0
  2  1  2  0
  3  2  1  0
  4  2  1  0
  5  4  1  0
  6  5  2  0
  7  6  1  0
  7  8  1  0
  9  7  2  0
 10  9  1  0
 11 10  2  0
 11  5  1  0
 12  6  1  0
 12  3  2  0
 12 13  1  0
 14 13  2  0
 15 13  1  0
 16 15  1  0
 17 16  1  0
 18 17  1  0
 19 18  1  0
 20 19  2  0
 21 20  1  0
 22 21  1  0
 23 19  1  0
 24 23  2  0
 25 24  1  0
 26 25  2  0
 26 20  1  0
M  END
>  <cid>  (89) 
EDJ-MED-6af13d92-1

>  <score>  (89) 
-12.6466

$$$$
x11294
     RDKit          3D

 27 29  0  0  0  0  0  0  0  0999 V2000
    7.9456   -4.0378   23.8701 O   0  0  0  0  0  0  0  0  0  0  0  0
    8.8692   -3.2620   23.6107 C   0  0  0  0  0  0  0  0  0  0  0  0
    8.6985   -2.0470   22.8980 C   0  0  0  0  0  0  0  0  0  0  0  0
   10.1277   -3.4972   24.1007 N   0  0  0  0  0  0  0  0  0  0  0  0
   11.1839   -2.5992   24.0137 C   0  0  0  0  0  0  0  0  0  0  0  0
   10.9783   -1.3544   23.3779 C   0  0  0  0  0  0  0  0  0  0  0  0
   12.0237   -0.4094   23.4209 C   0  0  0  0  0  0  0  0  0  0  0  0
   11.7371    0.8105   22.8698 O   0  0  0  0  0  0  0  0  0  0  0  0
   12.6469    1.8835   23.1065 C   0  0  0  0  0  0  0  0  0  0  0  0
   13.2373   -0.7260   24.0192 C   0  0  0  0  0  0  0  0  0  0  0  0
   13.4279   -1.9740   24.5856 C   0  0  0  0  0  0  0  0  0  0  0  0
   12.4086   -2.9082   24.5956 C   0  0  0  0  0  0  0  0  0  0  0  0
    9.6702   -1.1129   22.7527 C   0  0  0  0  0  0  0  0  0  0  0  0
    9.3785    0.0577   21.8746 C   0  0  0  0  0  0  0  0  0  0  0  0
    9.1711   -0.0845   20.6717 O   0  0  0  0  0  0  0  0  0  0  0  0
    9.3874    1.2555   22.4642 N   0  0  0  0  0  0  0  0  0  0  0  0
    9.3476    2.4971   21.7086 C   0  0  0  0  0  0  0  0  0  0  0  0
    7.9499    2.8783   21.3264 C   0  0  0  0  0  0  0  0  0  0  0  0
    7.4941    1.9389   20.3396 O   0  0  0  0  0  0  0  0  0  0  0  0
    6.1979    2.0295   19.8941 C   0  0  0  0  0  0  0  0  0  0  0  0
    5.8251    1.0839   18.9182 C   0  0  0  0  0  0  0  0  0  0  0  0
    6.8083    0.2023   18.5554 O   0  0  0  0  0  0  0  0  0  0  0  0
    6.4869   -1.1899   18.5324 C   0  0  0  0  0  0  0  0  0  0  0  0
    5.2965    3.0077   20.2887 C   0  0  0  0  0  0  0  0  0  0  0  0
    4.0469    3.0691   19.6931 C   0  0  0  0  0  0  0  0  0  0  0  0
    3.6803    2.1440   18.7350 C   0  0  0  0  0  0  0  0  0  0  0  0
    4.5566    1.1390   18.3536 C   0  0  0  0  0  0  0  0  0  0  0  0
  2  1  2  0
  3  2  1  0
  4  2  1  0
  5  4  1  0
  6  5  2  0
  7  6  1  0
  8  7  1  0
  9  8  1  0
 10  7  2  0
 11 10  1  0
 12 11  2  0
 12  5  1  0
 13  6  1  0
 13  3  2  0
 13 14  1  0
 15 14  2  0
 16 14  1  0
 17 16  1  0
 18 17  1  0
 19 18  1  0
 20 19  1  0
 21 20  2  0
 21 22  1  0
 23 22  1  0
 24 20  1  0
 25 24  2  0
 26 25  1  0
 27 26  2  0
 27 21  1  0
M  END
>  <cid>  (90) 
EDJ-MED-6af13d92-3

>  <score>  (90) 
-12.7611

$$$$
x11186
     RDKit          3D

 21 24  0  0  0  0  0  0  0  0999 V2000
    8.6394    2.6399   21.1298 O   0  0  0  0  0  0  0  0  0  0  0  0
    8.5450    1.5325   21.6468 C   0  0  0  0  0  0  0  0  0  0  0  0
    9.1484    1.2093   23.0150 C   0  0  2  0  0  0  0  0  0  0  0  0
    9.4205    2.5096   23.7644 C   0  0  0  0  0  0  0  0  0  0  0  0
   10.8381    2.7762   23.5794 O   0  0  0  0  0  0  0  0  0  0  0  0
   10.5465    0.6489   22.8637 C   0  0  0  0  0  0  0  0  0  0  0  0
   11.4624    1.6567   23.0799 C   0  0  0  0  0  0  0  0  0  0  0  0
   12.8207    1.4734   22.8828 C   0  0  0  0  0  0  0  0  0  0  0  0
   13.2646    0.2253   22.4828 C   0  0  0  0  0  0  0  0  0  0  0  0
   10.9964   -0.6085   22.4895 C   0  0  0  0  0  0  0  0  0  0  0  0
   12.3508   -0.8033   22.3205 C   0  0  0  0  0  0  0  0  0  0  0  0
   12.9302   -2.4046   21.9984 Cl  0  0  0  0  0  0  0  0  0  0  0  0
    7.8812    0.5028   21.0592 N   0  0  0  0  0  0  0  0  0  0  0  0
    7.2812    0.5271   19.8327 C   0  0  0  0  0  0  0  0  0  0  0  0
    6.4883   -0.5021   19.3843 N   0  0  0  0  0  0  0  0  0  0  0  0
    6.0649   -0.0812   18.1504 C   0  0  0  0  0  0  0  0  0  0  0  0
    6.5434    1.0948   17.8642 N   0  0  0  0  0  0  0  0  0  0  0  0
    7.3276    1.4939   18.9336 N   0  0  0  0  0  0  0  0  0  0  0  0
    6.1279   -1.7467   20.1000 C   0  0  0  0  0  0  0  0  0  0  0  0
    4.8156   -1.8050   20.8026 C   0  0  0  0  0  0  0  0  0  0  0  0
    5.0317   -2.5900   19.5459 C   0  0  0  0  0  0  0  0  0  0  0  0
  2  1  2  0
  3  2  1  6
  4  3  1  0
  5  4  1  0
  6  3  1  0
  7  6  2  0
  7  5  1  0
  7  8  1  0
  9  8  2  0
  6 10  1  0
 11 10  2  0
 11  9  1  0
 11 12  1  0
 13  2  1  0
 14 13  1  0
 15 14  1  0
 16 15  1  0
 17 16  2  0
 18 17  1  0
 18 14  2  0
 19 15  1  0
 20 19  1  0
 21 20  1  0
 21 19  1  0
M  END
>  <cid>  (91) 
MIC-UNK-deda7a44-5

>  <score>  (91) 
-24.7754

$$$$
