x10178
     RDKit          3D

 18 19  0  0  0  0  0  0  0  0999 V2000
   15.0494   -2.2841   26.5464 N   0  0  0  0  0  0  0  0  0  0  0  0
   14.2077   -2.1817   25.7841 C   0  0  0  0  0  0  0  0  0  0  0  0
   13.1512   -1.9968   24.8255 C   0  0  0  0  0  0  0  0  0  0  0  0
   12.3345   -3.0504   24.4192 C   0  0  0  0  0  0  0  0  0  0  0  0
   11.3013   -2.8983   23.5806 N   0  0  0  0  0  0  0  0  0  0  0  0
   11.0383   -1.6567   23.1399 C   0  0  0  0  0  0  0  0  0  0  0  0
   12.8701   -0.7232   24.3431 C   0  0  0  0  0  0  0  0  0  0  0  0
   11.7773   -0.5304   23.5124 C   0  0  0  0  0  0  0  0  0  0  0  0
   11.4283    0.8074   23.2368 N   0  0  0  0  0  0  0  0  0  0  0  0
   10.3994    1.2251   22.4758 C   0  0  0  0  0  0  0  0  0  0  0  0
    9.7413    0.4766   21.7585 O   0  0  0  0  0  0  0  0  0  0  0  0
   10.0997    2.7079   22.5730 C   0  0  0  0  0  0  0  0  0  0  0  0
   11.3648    3.5350   22.5545 C   0  0  0  0  0  0  0  0  0  0  0  0
   11.9337    3.9428   21.3594 C   0  0  0  0  0  0  0  0  0  0  0  0
   13.0558    4.6670   21.2737 N   0  0  0  0  0  0  0  0  0  0  0  0
   13.6568    5.0115   22.4210 C   0  0  0  0  0  0  0  0  0  0  0  0
   13.1746    4.6528   23.6658 C   0  0  0  0  0  0  0  0  0  0  0  0
   12.0098    3.9094   23.7245 C   0  0  0  0  0  0  0  0  0  0  0  0
  2  1  3  0
  3  2  1  0
  4  3  2  0
  5  4  1  0
  6  5  2  0
  7  3  1  0
  8  7  2  0
  8  6  1  0
  8  9  1  0
 10  9  1  0
 11 10  2  0
 12 10  1  0
 13 12  1  0
 14 13  2  0
 15 14  1  0
 16 15  2  0
 17 16  1  0
 18 17  2  0
 18 13  1  0
M  END
>  <cid>  (1) 
DAR-DIA-23aa0b97-6

>  <score>  (1) 
-17.6005

$$$$
x2964
     RDKit          3D

 18 19  0  0  0  0  0  0  0  0999 V2000
   10.1010    6.8896   22.3175 Cl  0  0  0  0  0  0  0  0  0  0  0  0
   11.2776    5.6241   22.4818 C   0  0  0  0  0  0  0  0  0  0  0  0
   12.6127    5.9579   22.6152 C   0  0  0  0  0  0  0  0  0  0  0  0
   13.5517    4.9393   22.6708 C   0  0  0  0  0  0  0  0  0  0  0  0
   13.1513    3.6135   22.6407 C   0  0  0  0  0  0  0  0  0  0  0  0
   10.8539    4.3118   22.4475 C   0  0  0  0  0  0  0  0  0  0  0  0
   11.7985    3.3002   22.5748 C   0  0  0  0  0  0  0  0  0  0  0  0
   11.3427    2.0066   22.9068 N   0  0  0  0  0  0  0  0  0  0  0  0
   12.1688    0.9802   23.2729 C   0  0  0  0  0  0  0  0  0  0  0  0
   13.3944    1.0655   23.2565 O   0  0  0  0  0  0  0  0  0  0  0  0
   11.5023   -0.1386   23.6906 N   0  0  0  0  0  0  0  0  0  0  0  0
   12.1345   -1.2808   24.2255 C   0  0  0  0  0  0  0  0  0  0  0  0
   11.4786   -2.5087   24.1776 C   0  0  0  0  0  0  0  0  0  0  0  0
   11.9271   -3.6115   24.7807 N   0  0  0  0  0  0  0  0  0  0  0  0
   13.0806   -3.5315   25.4444 C   0  0  0  0  0  0  0  0  0  0  0  0
   13.3342   -1.2149   24.9242 C   0  0  0  0  0  0  0  0  0  0  0  0
   13.8327   -2.3527   25.5580 C   0  0  0  0  0  0  0  0  0  0  0  0
   15.0014   -2.3002   26.2754 N   0  0  0  0  0  0  0  0  0  0  0  0
  2  1  1  0
  3  2  2  0
  4  3  1  0
  5  4  2  0
  6  2  1  0
  7  6  2  0
  7  5  1  0
  7  8  1  0
  9  8  1  0
 10  9  2  0
 11  9  1  0
 12 11  1  0
 13 12  2  0
 14 13  1  0
 15 14  2  0
 16 12  1  0
 17 16  2  0
 17 15  1  0
 18 17  1  0
M  END
>  <cid>  (2) 
DAR-DIA-23aa0b97-13

>  <score>  (2) 
-19.4354

$$$$
x10996
     RDKit          3D

 17 18  0  0  0  0  0  0  0  0999 V2000
   13.3227    6.5374   22.3583 C   0  0  0  0  0  0  0  0  0  0  0  0
   11.1192    0.7071   23.2276 N   0  0  0  0  0  0  0  0  0  0  0  0
   14.0416    5.4066   22.3868 N   0  0  0  0  0  0  0  0  0  0  0  0
   12.0619   -3.1146   24.5798 C   0  0  0  0  0  0  0  0  0  0  0  0
   12.6562   -0.7919   24.2919 C   0  0  0  0  0  0  0  0  0  0  0  0
   12.8860   -2.0384   24.8378 C   0  0  0  0  0  0  0  0  0  0  0  0
   11.9411    6.5611   22.3622 C   0  0  0  0  0  0  0  0  0  0  0  0
   11.0024   -2.9468   23.6987 C   0  0  0  0  0  0  0  0  0  0  0  0
   11.3385    2.9201   22.6711 N   0  0  0  0  0  0  0  0  0  0  0  0
   11.9793    4.1675   22.4618 C   0  0  0  0  0  0  0  0  0  0  0  0
   13.1745    1.6967   23.2501 O   0  0  0  0  0  0  0  0  0  0  0  0
   11.9659    1.7680   23.0615 C   0  0  0  0  0  0  0  0  0  0  0  0
   11.2600    5.3553   22.4077 C   0  0  0  0  0  0  0  0  0  0  0  0
   11.5472   -0.6174   23.4698 C   0  0  0  0  0  0  0  0  0  0  0  0
   13.3708    4.2503   22.4328 C   0  0  0  0  0  0  0  0  0  0  0  0
   10.7488   -1.7049   23.1351 C   0  0  0  0  0  0  0  0  0  0  0  0
   14.2662   -2.2567   25.8741 Cl  0  0  0  0  0  0  0  0  0  0  0  0
  3  1  2  0
  6  5  1  0
  6  4  2  0
  7  1  1  0
  8  4  1  0
 10  9  1  0
 12 11  2  0
 12  9  1  0
 12  2  1  0
 13  7  2  0
 13 10  1  0
 14  2  1  0
 14  5  2  0
 15 10  2  0
 15  3  1  0
 16 14  1  0
 16  8  2  0
 17  6  1  0
M  END
>  <cid>  (3) 
DAR-DIA-23aa0b97-14

>  <score>  (3) 
-18.5311

$$$$
x2569
     RDKit          3D

 18 19  0  0  0  0  0  0  0  0999 V2000
   14.1183   -3.1074   26.3524 N   0  0  0  0  0  0  0  0  0  0  0  0
   13.7752   -2.7291   25.3315 C   0  0  0  0  0  0  0  0  0  0  0  0
   13.3168   -2.2261   24.0611 C   0  0  0  0  0  0  0  0  0  0  0  0
   13.6158   -2.8768   22.8635 C   0  0  0  0  0  0  0  0  0  0  0  0
   13.1991   -2.4417   21.6684 N   0  0  0  0  0  0  0  0  0  0  0  0
   12.4573   -1.3236   21.6451 C   0  0  0  0  0  0  0  0  0  0  0  0
   12.5498   -1.0668   24.0038 C   0  0  0  0  0  0  0  0  0  0  0  0
   12.1014   -0.5987   22.7726 C   0  0  0  0  0  0  0  0  0  0  0  0
   11.2126    0.6177   22.6776 C   0  0  0  0  0  0  0  0  0  0  0  0
   12.0327    1.8689   22.9245 C   0  0  0  0  0  0  0  0  0  0  0  0
   13.1685    1.8127   23.3950 O   0  0  0  0  0  0  0  0  0  0  0  0
   11.3931    3.0256   22.6582 N   0  0  0  0  0  0  0  0  0  0  0  0
   11.9643    4.2811   22.3649 C   0  0  0  0  0  0  0  0  0  0  0  0
   13.3331    4.4890   22.1861 C   0  0  0  0  0  0  0  0  0  0  0  0
   13.9065    5.6987   22.2102 N   0  0  0  0  0  0  0  0  0  0  0  0
   13.1115    6.7517   22.4334 C   0  0  0  0  0  0  0  0  0  0  0  0
   11.7447    6.6497   22.6200 C   0  0  0  0  0  0  0  0  0  0  0  0
   11.1625    5.3965   22.5641 C   0  0  0  0  0  0  0  0  0  0  0  0
  2  1  3  0
  3  2  1  0
  4  3  2  0
  5  4  1  0
  6  5  2  0
  7  3  1  0
  8  7  2  0
  8  6  1  0
  9  8  1  0
 10  9  1  0
 10 11  2  0
 12 10  1  0
 13 12  1  0
 14 13  2  0
 15 14  1  0
 16 15  2  0
 17 16  1  0
 18 17  2  0
 18 13  1  0
M  END
>  <cid>  (4) 
DAR-DIA-23aa0b97-17

>  <score>  (4) 
-15.9085

$$$$
x2563
     RDKit          3D

 20 22  0  0  0  0  0  0  0  0999 V2000
   13.1464    1.6195   23.0092 O   0  0  0  0  0  0  0  0  0  0  0  0
   11.9360    1.4317   22.8894 C   0  0  0  0  0  0  0  0  0  0  0  0
   11.3376    0.2463   23.1155 N   0  0  0  0  0  0  0  0  0  0  0  0
   11.9552   -0.8840   23.6833 C   0  0  0  0  0  0  0  0  0  0  0  0
   11.2666   -2.0922   23.7154 C   0  0  0  0  0  0  0  0  0  0  0  0
   11.7663   -3.1505   24.4534 C   0  0  0  0  0  0  0  0  0  0  0  0
   12.9526   -3.0181   25.1446 C   0  0  0  0  0  0  0  0  0  0  0  0
   13.6527   -1.8307   25.0938 C   0  0  0  0  0  0  0  0  0  0  0  0
   13.1645   -0.7622   24.3612 C   0  0  0  0  0  0  0  0  0  0  0  0
   10.9799    2.5500   22.5307 C   0  0  0  0  0  0  0  0  0  0  0  0
   11.6170    3.9193   22.5166 C   0  0  0  0  0  0  0  0  0  0  0  0
   11.5353    4.7932   23.6448 C   0  0  0  0  0  0  0  0  0  0  0  0
   10.8581    4.4542   24.8463 C   0  0  0  0  0  0  0  0  0  0  0  0
   10.8303    5.3192   25.9045 C   0  0  0  0  0  0  0  0  0  0  0  0
   11.4591    6.5532   25.8283 C   0  0  0  0  0  0  0  0  0  0  0  0
   12.1285    6.9227   24.7001 C   0  0  0  0  0  0  0  0  0  0  0  0
   12.1822    6.0589   23.5783 C   0  0  0  0  0  0  0  0  0  0  0  0
   12.8599    6.3809   22.3835 C   0  0  0  0  0  0  0  0  0  0  0  0
   12.9308    5.5755   21.3347 N   0  0  0  0  0  0  0  0  0  0  0  0
   12.3223    4.3865   21.4252 C   0  0  0  0  0  0  0  0  0  0  0  0
  2  1  2  0
  3  2  1  0
  4  3  1  0
  5  4  2  0
  6  5  1  0
  7  6  2  0
  8  7  1  0
  9  4  1  0
  9  8  2  0
 10  2  1  0
 11 10  1  0
 12 11  1  0
 13 12  2  0
 14 13  1  0
 15 14  2  0
 16 15  1  0
 17 16  2  0
 17 12  1  0
 18 17  1  0
 19 18  2  0
 20 19  1  0
 20 11  2  0
M  END
>  <cid>  (5) 
DAR-DIA-23aa0b97-20

>  <score>  (5) 
-17.9956

$$$$
x2608
     RDKit          3D

 16 17  0  0  0  0  0  0  0  0999 V2000
    9.7828    0.0393   22.3003 O   0  0  0  0  0  0  0  0  0  0  0  0
    9.6668   -1.1248   21.9266 C   0  0  0  0  0  0  0  0  0  0  0  0
    8.7936   -1.4731   20.9080 N   0  0  0  0  0  0  0  0  0  0  0  0
    8.0182   -0.4993   20.2855 C   0  0  0  0  0  0  0  0  0  0  0  0
    7.9552    0.8161   20.6370 C   0  0  0  0  0  0  0  0  0  0  0  0
    7.1504    1.5723   19.7569 C   0  0  0  0  0  0  0  0  0  0  0  0
    7.0585   -0.8143   18.8810 S   0  0  0  0  0  0  0  0  0  0  0  0
    6.6053    0.8442   18.7446 C   0  0  0  0  0  0  0  0  0  0  0  0
    5.7795    1.3098   17.5912 C   0  0  0  0  0  0  0  0  0  0  0  0
   10.3902   -2.1488   22.4577 N   0  0  0  0  0  0  0  0  0  0  0  0
   11.3784   -1.9826   23.4490 C   0  0  0  0  0  0  0  0  0  0  0  0
   12.0836   -0.7841   23.5531 C   0  0  0  0  0  0  0  0  0  0  0  0
   13.1347   -0.6188   24.3643 N   0  0  0  0  0  0  0  0  0  0  0  0
   13.5190   -1.6703   25.0981 C   0  0  0  0  0  0  0  0  0  0  0  0
   12.8754   -2.8927   25.0783 C   0  0  0  0  0  0  0  0  0  0  0  0
   11.7807   -3.0463   24.2465 C   0  0  0  0  0  0  0  0  0  0  0  0
  2  1  2  0
  3  2  1  0
  4  3  1  0
  5  4  2  0
  6  5  1  0
  7  4  1  0
  8  7  1  0
  8  6  2  0
  8  9  1  0
 10  2  1  0
 11 10  1  0
 12 11  2  0
 13 12  1  0
 14 13  2  0
 15 14  1  0
 16 15  2  0
 16 11  1  0
M  END
>  <cid>  (6) 
DAR-DIA-842b4336-3

>  <score>  (6) 
-16.1016

$$$$
x2643
     RDKit          3D

 16 17  0  0  0  0  0  0  0  0999 V2000
    9.9321    1.0279   23.4524 O   0  0  0  0  0  0  0  0  0  0  0  0
   10.9606    0.7108   22.8548 C   0  0  0  0  0  0  0  0  0  0  0  0
   11.1246   -0.6617   22.2401 C   0  0  0  0  0  0  0  0  0  0  0  0
   11.7968   -1.4721   23.3080 C   0  0  0  0  0  0  0  0  0  0  0  0
   11.3654   -2.6696   23.8370 C   0  0  0  0  0  0  0  0  0  0  0  0
   12.1875   -3.1581   24.8613 C   0  0  0  0  0  0  0  0  0  0  0  0
   13.2554   -0.9538   24.0764 S   0  0  0  0  0  0  0  0  0  0  0  0
   13.2371   -2.3370   25.0896 C   0  0  0  0  0  0  0  0  0  0  0  0
   14.4887   -2.5651   26.2392 Cl  0  0  0  0  0  0  0  0  0  0  0  0
   12.0108    1.5416   22.6760 N   0  0  0  0  0  0  0  0  0  0  0  0
   12.1179    2.8883   23.0835 C   0  0  0  0  0  0  0  0  0  0  0  0
   11.1187    3.4913   23.8467 C   0  0  0  0  0  0  0  0  0  0  0  0
   11.1872    4.7525   24.2869 N   0  0  0  0  0  0  0  0  0  0  0  0
   12.2715    5.4645   23.9601 C   0  0  0  0  0  0  0  0  0  0  0  0
   13.3099    4.9648   23.1963 C   0  0  0  0  0  0  0  0  0  0  0  0
   13.2326    3.6532   22.7571 C   0  0  0  0  0  0  0  0  0  0  0  0
  2  1  2  0
  3  2  1  0
  4  3  1  0
  5  4  2  0
  6  5  1  0
  7  4  1  0
  8  7  1  0
  8  6  2  0
  9  8  1  0
 10  2  1  0
 11 10  1  0
 12 11  2  0
 13 12  1  0
 14 13  2  0
 15 14  1  0
 16 15  2  0
 16 11  1  0
M  END
>  <cid>  (7) 
DAR-DIA-842b4336-13

>  <score>  (7) 
-17.6589

$$$$
x10996
     RDKit          3D

 17 18  0  0  0  0  0  0  0  0999 V2000
   12.9760    6.6251   21.9433 C   0  0  0  0  0  0  0  0  0  0  0  0
   11.0847    0.7006   23.2208 N   0  0  0  0  0  0  0  0  0  0  0  0
   11.6593    6.5528   22.1835 N   0  0  0  0  0  0  0  0  0  0  0  0
   12.0615   -3.1137   24.5696 C   0  0  0  0  0  0  0  0  0  0  0  0
   12.6329   -0.7845   24.2883 C   0  0  0  0  0  0  0  0  0  0  0  0
   12.8735   -2.0296   24.8329 C   0  0  0  0  0  0  0  0  0  0  0  0
   13.8210    5.5334   22.0003 C   0  0  0  0  0  0  0  0  0  0  0  0
   11.0038   -2.9552   23.6847 C   0  0  0  0  0  0  0  0  0  0  0  0
   11.2883    2.9252   22.7062 N   0  0  0  0  0  0  0  0  0  0  0  0
   11.9151    4.1864   22.5428 C   0  0  0  0  0  0  0  0  0  0  0  0
   13.1192    1.7249   23.3464 O   0  0  0  0  0  0  0  0  0  0  0  0
   11.9187    1.7783   23.1068 C   0  0  0  0  0  0  0  0  0  0  0  0
   13.2812    4.2959   22.3121 C   0  0  0  0  0  0  0  0  0  0  0  0
   11.5254   -0.6198   23.4622 C   0  0  0  0  0  0  0  0  0  0  0  0
   11.1518    5.3515   22.4811 C   0  0  0  0  0  0  0  0  0  0  0  0
   10.7397   -1.7149   23.1223 C   0  0  0  0  0  0  0  0  0  0  0  0
   14.2519   -2.2355   25.8742 Cl  0  0  0  0  0  0  0  0  0  0  0  0
  3  1  2  0
  6  5  1  0
  6  4  2  0
  7  1  1  0
  8  4  1  0
 10  9  1  0
 12 11  2  0
 12  9  1  0
 12  2  1  0
 13  7  2  0
 13 10  1  0
 14  2  1  0
 14  5  2  0
 15 10  2  0
 15  3  1  0
 16 14  1  0
 16  8  2  0
 17  6  1  0
M  END
>  <cid>  (8) 
WAR-XCH-eb7b662f-7

>  <score>  (8) 
-18.6731

$$$$
x11317
     RDKit          3D

 19 20  0  0  0  0  0  0  0  0999 V2000
   14.1853   -2.5599   26.0425 Cl  0  0  0  0  0  0  0  0  0  0  0  0
   13.5517   -2.1801   24.4660 C   0  0  0  0  0  0  0  0  0  0  0  0
   13.8970   -2.9728   23.3913 C   0  0  0  0  0  0  0  0  0  0  0  0
   13.3984   -2.6449   22.1398 C   0  0  0  0  0  0  0  0  0  0  0  0
   12.5414   -1.5641   21.9910 C   0  0  0  0  0  0  0  0  0  0  0  0
   12.7026   -1.1031   24.3337 C   0  0  0  0  0  0  0  0  0  0  0  0
   12.1638   -0.7996   23.0897 C   0  0  0  0  0  0  0  0  0  0  0  0
   11.1358    0.3029   22.9634 C   0  0  0  0  0  0  0  0  0  0  0  0
   11.8022    1.6471   22.7419 C   0  0  0  0  0  0  0  0  0  0  0  0
   13.0034    1.8232   22.9555 O   0  0  0  0  0  0  0  0  0  0  0  0
   10.9617    2.6378   22.3852 N   0  0  0  0  0  0  0  0  0  0  0  0
   11.3725    3.9913   22.2736 C   0  0  0  0  0  0  0  0  0  0  0  0
   10.5494    5.0337   22.7300 C   0  0  0  0  0  0  0  0  0  0  0  0
    9.2145    4.7534   23.3770 C   0  0  0  0  0  0  0  0  0  0  0  0
   12.6194    4.2709   21.7329 C   0  0  0  0  0  0  0  0  0  0  0  0
   13.0864    5.5132   21.6117 N   0  0  0  0  0  0  0  0  0  0  0  0
   12.3055    6.5124   22.0376 C   0  0  0  0  0  0  0  0  0  0  0  0
   11.0249    6.3159   22.6009 C   0  0  0  0  0  0  0  0  0  0  0  0
   10.3113    7.4362   23.0046 N   0  0  0  0  0  0  0  0  0  0  0  0
  2  1  1  0
  3  2  2  0
  4  3  1  0
  5  4  2  0
  6  2  1  0
  7  5  1  0
  7  6  2  0
  7  8  1  0
  9  8  1  0
  9 10  2  0
 11  9  1  0
 12 11  1  0
 13 12  2  0
 14 13  1  0
 15 12  1  0
 16 15  2  0
 17 16  1  0
 18 17  2  0
 18 13  1  0
 19 18  1  0
M  END
>  <cid>  (9) 
TRY-UNI-714a760b-3

>  <score>  (9) 
-16.2176

$$$$
x2646
     RDKit          3D

 18 19  0  0  0  0  0  0  0  0999 V2000
   14.0738   -2.3205   25.8378 Cl  0  0  0  0  0  0  0  0  0  0  0  0
   13.1328   -2.3176   24.3704 C   0  0  0  0  0  0  0  0  0  0  0  0
   13.7555   -2.5755   23.1636 C   0  0  0  0  0  0  0  0  0  0  0  0
   13.0100   -2.4780   21.9954 C   0  0  0  0  0  0  0  0  0  0  0  0
   11.6632   -2.1588   22.0514 C   0  0  0  0  0  0  0  0  0  0  0  0
   11.7832   -2.0219   24.4419 C   0  0  0  0  0  0  0  0  0  0  0  0
   11.0304   -1.9560   23.2704 C   0  0  0  0  0  0  0  0  0  0  0  0
    9.5320   -1.7900   23.3460 C   0  0  0  0  0  0  0  0  0  0  0  0
    8.8328   -3.1342   23.2708 C   0  0  0  0  0  0  0  0  0  0  0  0
    9.2025   -4.0990   23.9334 O   0  0  0  0  0  0  0  0  0  0  0  0
    7.8062   -3.1830   22.4007 N   0  0  0  0  0  0  0  0  0  0  0  0
    7.0587   -4.3392   22.1001 C   0  0  0  0  0  0  0  0  0  0  0  0
    5.8737   -4.2373   21.3489 C   0  0  0  0  0  0  0  0  0  0  0  0
    5.2868   -2.9088   20.9510 C   0  0  0  0  0  0  0  0  0  0  0  0
    7.5290   -5.6023   22.4533 C   0  0  0  0  0  0  0  0  0  0  0  0
    6.9194   -6.7372   22.0937 N   0  0  0  0  0  0  0  0  0  0  0  0
    5.7968   -6.6311   21.3729 C   0  0  0  0  0  0  0  0  0  0  0  0
    5.2480   -5.4256   20.9841 C   0  0  0  0  0  0  0  0  0  0  0  0
  2  1  1  0
  3  2  2  0
  4  3  1  0
  5  4  2  0
  6  2  1  0
  7  5  1  0
  7  6  2  0
  7  8  1  0
  9  8  1  0
 10  9  2  0
 11  9  1  0
 12 11  1  0
 13 12  2  0
 14 13  1  0
 15 12  1  0
 16 15  2  0
 17 16  1  0
 18 17  2  0
 18 13  1  0
M  END
>  <cid>  (10) 
TRY-UNI-714a760b-6

>  <score>  (10) 
-16.6258

$$$$
x2908
     RDKit          3D

 18 19  0  0  0  0  0  0  0  0999 V2000
    4.9107   -2.9151   19.2157 Cl  0  0  0  0  0  0  0  0  0  0  0  0
    5.8245   -1.4413   19.0616 C   0  0  0  0  0  0  0  0  0  0  0  0
    5.4739   -0.5275   18.0858 C   0  0  0  0  0  0  0  0  0  0  0  0
    6.2039    0.6478   17.9778 C   0  0  0  0  0  0  0  0  0  0  0  0
    7.2488    0.9084   18.8506 C   0  0  0  0  0  0  0  0  0  0  0  0
    6.8687   -1.2141   19.9328 C   0  0  0  0  0  0  0  0  0  0  0  0
    7.5685   -0.0159   19.8416 C   0  0  0  0  0  0  0  0  0  0  0  0
    8.4286    0.2999   20.9135 N   0  0  0  0  0  0  0  0  0  0  0  0
    9.1837   -0.6398   21.5571 C   0  0  0  0  0  0  0  0  0  0  0  0
    9.0458   -1.8406   21.3680 O   0  0  0  0  0  0  0  0  0  0  0  0
   10.1007   -0.1167   22.4225 N   0  0  0  0  0  0  0  0  0  0  0  0
   10.9654   -0.9421   23.1734 C   0  0  0  0  0  0  0  0  0  0  0  0
   12.2716   -0.5075   23.4663 C   0  0  0  0  0  0  0  0  0  0  0  0
   12.7600    0.8683   23.0891 C   0  0  0  0  0  0  0  0  0  0  0  0
   10.5412   -2.1783   23.6620 C   0  0  0  0  0  0  0  0  0  0  0  0
   11.3201   -2.9845   24.3919 N   0  0  0  0  0  0  0  0  0  0  0  0
   12.5690   -2.5706   24.6464 C   0  0  0  0  0  0  0  0  0  0  0  0
   13.0774   -1.3641   24.2070 C   0  0  0  0  0  0  0  0  0  0  0  0
  2  1  1  0
  3  2  2  0
  4  3  1  0
  5  4  2  0
  6  2  1  0
  7  5  1  0
  7  6  2  0
  7  8  1  0
  9  8  1  0
 10  9  2  0
 11  9  1  0
 12 11  1  0
 13 12  2  0
 13 14  1  0
 15 12  1  0
 16 15  2  0
 17 16  1  0
 18 17  2  0
 18 13  1  0
M  END
>  <cid>  (11) 
TRY-UNI-714a760b-12

>  <score>  (11) 
-18.0678

$$$$
x11044
     RDKit          3D

 18 19  0  0  0  0  0  0  0  0999 V2000
   10.3895   -0.3256   21.9296 N   0  0  0  0  0  0  0  0  0  0  0  0
   12.0933   -3.0038   24.6010 C   0  0  0  0  0  0  0  0  0  0  0  0
    8.4832    0.7349   20.8599 C   0  0  1  0  0  0  0  0  0  0  0  0
    9.1530   -0.5131   21.4256 C   0  0  0  0  0  0  0  0  0  0  0  0
    7.1773    0.3567   20.1105 C   0  0  0  0  0  0  0  0  0  0  0  0
    6.0703   -1.0094   18.2781 C   0  0  0  0  0  0  0  0  0  0  0  0
    5.3255    0.2216   17.7765 C   0  0  0  0  0  0  0  0  0  0  0  0
    5.0869    1.2002   18.9120 C   0  0  0  0  0  0  0  0  0  0  0  0
   12.3000   -0.9802   23.3328 C   0  0  0  0  0  0  0  0  0  0  0  0
   10.3485   -2.3958   23.2566 C   0  0  0  0  0  0  0  0  0  0  0  0
   11.0081   -1.2479   22.8176 C   0  0  0  0  0  0  0  0  0  0  0  0
   12.8394   -1.9029   24.2227 C   0  0  0  0  0  0  0  0  0  0  0  0
   13.0501    0.2852   23.0061 C   0  0  0  0  0  0  0  0  0  0  0  0
    8.2310    1.6662   22.0467 C   0  0  0  0  0  0  0  0  0  0  0  0
   10.8643   -3.2558   24.1420 N   0  0  0  0  0  0  0  0  0  0  0  0
    8.5505   -1.5726   21.5060 O   0  0  0  0  0  0  0  0  0  0  0  0
    7.3901   -0.6294   18.9533 C   0  0  0  0  0  0  0  0  0  0  0  0
    6.3967    1.5833   19.6061 C   0  0  0  0  0  0  0  0  0  0  0  0
  4  1  1  0
  4  3  1  0
  5  3  1  0
  7  6  1  0
  8  7  1  0
 11 10  1  0
 11  9  2  0
 11  1  1  0
 12  9  1  0
 12  2  2  0
  9 13  1  0
  3 14  1  1
 15 10  2  0
 15  2  1  0
  4 16  2  0
 17  6  1  0
  5 17  1  0
 18  8  1  0
 18  5  1  0
M  END
>  <cid>  (12) 
TRY-UNI-714a760b-16

>  <score>  (12) 
-15.7624

$$$$
x2649
     RDKit          3D

 19 20  0  0  0  0  0  0  0  0999 V2000
   12.7121    1.8923   23.3472 Cl  0  0  0  0  0  0  0  0  0  0  0  0
   12.4102    0.3460   22.6091 C   0  0  0  0  0  0  0  0  0  0  0  0
   13.4777   -0.4435   22.2272 C   0  0  0  0  0  0  0  0  0  0  0  0
   13.2197   -1.6351   21.5618 C   0  0  0  0  0  0  0  0  0  0  0  0
   11.9141   -2.0425   21.3386 C   0  0  0  0  0  0  0  0  0  0  0  0
   11.1045   -0.0470   22.3936 C   0  0  0  0  0  0  0  0  0  0  0  0
   10.8465   -1.2681   21.7809 C   0  0  0  0  0  0  0  0  0  0  0  0
    9.4132   -1.7827   21.7130 C   0  0  1  0  0  0  0  0  0  0  0  0
    8.8332   -2.1219   23.0887 C   0  0  0  0  0  0  0  0  0  0  0  0
    8.5946   -0.7504   20.9308 C   0  0  0  0  0  0  0  0  0  0  0  0
    8.6621    0.4511   21.1830 O   0  0  0  0  0  0  0  0  0  0  0  0
    7.7930   -1.2630   19.9685 N   0  0  0  0  0  0  0  0  0  0  0  0
    6.9164   -0.5093   19.1710 C   0  0  0  0  0  0  0  0  0  0  0  0
    5.6618   -1.0332   18.8162 C   0  0  0  0  0  0  0  0  0  0  0  0
    5.1402   -2.3229   19.3939 C   0  0  0  0  0  0  0  0  0  0  0  0
    4.8717   -0.2672   17.9682 C   0  0  0  0  0  0  0  0  0  0  0  0
    5.3271    0.9670   17.5428 C   0  0  0  0  0  0  0  0  0  0  0  0
    6.5049    1.4880   17.9042 N   0  0  0  0  0  0  0  0  0  0  0  0
    7.2843    0.7506   18.7011 C   0  0  0  0  0  0  0  0  0  0  0  0
  2  1  1  0
  3  2  2  0
  4  3  1  0
  5  4  2  0
  6  2  1  0
  7  5  1  0
  7  6  2  0
  8  7  1  0
  8  9  1  1
 10  8  1  0
 11 10  2  0
 12 10  1  0
 13 12  1  0
 14 13  2  0
 14 15  1  0
 16 14  1  0
 17 16  2  0
 18 17  1  0
 19 18  2  0
 19 13  1  0
M  END
>  <cid>  (13) 
TRY-UNI-714a760b-18

>  <score>  (13) 
-17.9224

$$$$
x11318
     RDKit          3D

 20 21  0  0  0  0  0  0  0  0999 V2000
   14.3893   -3.5952   26.8305 N   0  0  0  0  0  0  0  0  0  0  0  0
   13.7737   -3.1770   25.9650 C   0  0  0  0  0  0  0  0  0  0  0  0
   13.0173   -2.6053   24.8774 C   0  0  0  0  0  0  0  0  0  0  0  0
   11.8857   -3.2532   24.3878 C   0  0  0  0  0  0  0  0  0  0  0  0
   11.1711   -2.6881   23.3449 C   0  0  0  0  0  0  0  0  0  0  0  0
   11.5571   -1.4639   22.8219 C   0  0  0  0  0  0  0  0  0  0  0  0
   13.4125   -1.3838   24.3350 C   0  0  0  0  0  0  0  0  0  0  0  0
   12.6649   -0.7929   23.3223 C   0  0  0  0  0  0  0  0  0  0  0  0
   13.0406    0.5779   22.8134 C   0  0  0  0  0  0  0  0  0  0  0  0
   12.0312    1.6072   23.2735 C   0  0  0  0  0  0  0  0  0  0  0  0
   10.8402    1.3358   23.3915 O   0  0  0  0  0  0  0  0  0  0  0  0
   12.5503    2.8352   23.4877 N   0  0  0  0  0  0  0  0  0  0  0  0
   11.7931    3.9879   23.8090 C   0  0  0  0  0  0  0  0  0  0  0  0
   12.1290    5.2340   23.2510 C   0  0  0  0  0  0  0  0  0  0  0  0
   13.2629    5.3724   22.2613 C   0  0  0  0  0  0  0  0  0  0  0  0
   10.7103    3.8665   24.6712 C   0  0  0  0  0  0  0  0  0  0  0  0
    9.9533    4.9035   25.0338 N   0  0  0  0  0  0  0  0  0  0  0  0
   10.2648    6.1020   24.5289 C   0  0  0  0  0  0  0  0  0  0  0  0
   11.3448    6.3289   23.6189 C   0  0  0  0  0  0  0  0  0  0  0  0
   11.5404    7.6200   23.1086 N   0  0  0  0  0  0  0  0  0  0  0  0
  2  1  3  0
  3  2  1  0
  4  3  2  0
  5  4  1  0
  6  5  2  0
  7  3  1  0
  8  6  1  0
  8  7  2  0
  9  8  1  0
 10  9  1  0
 11 10  2  0
 12 10  1  0
 13 12  1  0
 14 13  2  0
 15 14  1  0
 16 13  1  0
 17 16  2  0
 18 17  1  0
 19 18  2  0
 19 14  1  0
 20 19  1  0
M  END
>  <cid>  (14) 
TRY-UNI-714a760b-19

>  <score>  (14) 
-15.5827

$$$$
x2572
     RDKit          3D

 19 20  0  0  0  0  0  0  0  0999 V2000
   14.4438   -2.8364   26.4691 N   0  0  0  0  0  0  0  0  0  0  0  0
   13.9796   -2.5623   25.4610 C   0  0  0  0  0  0  0  0  0  0  0  0
   13.4126   -2.1825   24.1938 C   0  0  0  0  0  0  0  0  0  0  0  0
   13.6781   -2.9370   23.0529 C   0  0  0  0  0  0  0  0  0  0  0  0
   13.1716   -2.5323   21.8294 C   0  0  0  0  0  0  0  0  0  0  0  0
   12.3900   -1.3923   21.7441 C   0  0  0  0  0  0  0  0  0  0  0  0
   12.6226   -1.0374   24.1051 C   0  0  0  0  0  0  0  0  0  0  0  0
   12.1002   -0.6403   22.8765 C   0  0  0  0  0  0  0  0  0  0  0  0
   11.1906    0.5636   22.7933 C   0  0  0  0  0  0  0  0  0  0  0  0
   12.0234    1.8271   22.8738 C   0  0  0  0  0  0  0  0  0  0  0  0
   13.2059    1.8021   23.2040 O   0  0  0  0  0  0  0  0  0  0  0  0
   11.3735    2.9481   22.5145 N   0  0  0  0  0  0  0  0  0  0  0  0
   11.9406    4.2368   22.4915 C   0  0  0  0  0  0  0  0  0  0  0  0
   11.1156    5.3560   22.6757 C   0  0  0  0  0  0  0  0  0  0  0  0
    9.6369    5.2204   22.9400 C   0  0  0  0  0  0  0  0  0  0  0  0
   13.3098    4.4332   22.2936 C   0  0  0  0  0  0  0  0  0  0  0  0
   13.8807    5.6434   22.2724 N   0  0  0  0  0  0  0  0  0  0  0  0
   13.0833    6.7036   22.4390 C   0  0  0  0  0  0  0  0  0  0  0  0
   11.7211    6.6084   22.6452 C   0  0  0  0  0  0  0  0  0  0  0  0
  2  1  3  0
  3  2  1  0
  4  3  2  0
  5  4  1  0
  6  5  2  0
  7  3  1  0
  8  7  2  0
  8  6  1  0
  9  8  1  0
 10  9  1  0
 11 10  2  0
 12 10  1  0
 13 12  1  0
 14 13  2  0
 15 14  1  0
 16 13  1  0
 17 16  2  0
 18 17  1  0
 19 18  2  0
 19 14  1  0
M  END
>  <cid>  (15) 
TRY-UNI-714a760b-20

>  <score>  (15) 
-17.9457

$$$$
x2912
     RDKit          3D

 20 21  0  0  0  0  0  0  0  0999 V2000
   12.5504    3.0405   23.6362 N   0  0  0  0  0  0  0  0  0  0  0  0
   12.4427    1.9956   23.1867 C   0  0  0  0  0  0  0  0  0  0  0  0
   12.2574    0.6794   22.6291 C   0  0  0  0  0  0  0  0  0  0  0  0
   13.3593   -0.1146   22.3168 C   0  0  0  0  0  0  0  0  0  0  0  0
   13.1659   -1.4112   21.8649 C   0  0  0  0  0  0  0  0  0  0  0  0
   11.8822   -1.9268   21.7589 C   0  0  0  0  0  0  0  0  0  0  0  0
   10.9691    0.1707   22.4836 C   0  0  0  0  0  0  0  0  0  0  0  0
   10.7727   -1.1427   22.0672 C   0  0  0  0  0  0  0  0  0  0  0  0
    9.3556   -1.6981   21.9886 C   0  0  1  0  0  0  0  0  0  0  0  0
    8.7359   -1.9776   23.3637 C   0  0  0  0  0  0  0  0  0  0  0  0
    8.5509   -0.7097   21.1398 C   0  0  0  0  0  0  0  0  0  0  0  0
    8.5971    0.5007   21.3376 O   0  0  0  0  0  0  0  0  0  0  0  0
    7.7936   -1.2631   20.1727 N   0  0  0  0  0  0  0  0  0  0  0  0
    6.9640   -0.5158   19.3190 C   0  0  0  0  0  0  0  0  0  0  0  0
    5.7264   -1.0366   18.9088 C   0  0  0  0  0  0  0  0  0  0  0  0
    5.1458   -2.2930   19.5095 C   0  0  0  0  0  0  0  0  0  0  0  0
    5.0204   -0.3154   17.9580 C   0  0  0  0  0  0  0  0  0  0  0  0
    5.5375    0.8737   17.4833 C   0  0  0  0  0  0  0  0  0  0  0  0
    6.6932    1.4027   17.9096 N   0  0  0  0  0  0  0  0  0  0  0  0
    7.3884    0.7128   18.8150 C   0  0  0  0  0  0  0  0  0  0  0  0
  2  1  3  0
  3  2  1  0
  4  3  2  0
  5  4  1  0
  6  5  2  0
  7  3  1  0
  8  6  1  0
  8  7  2  0
  9  8  1  0
  9 10  1  1
 11  9  1  0
 12 11  2  0
 13 11  1  0
 14 13  1  0
 15 14  2  0
 15 16  1  0
 17 15  1  0
 18 17  2  0
 19 18  1  0
 20 19  2  0
 20 14  1  0
M  END
>  <cid>  (16) 
TRY-UNI-714a760b-22

>  <score>  (16) 
-17.2599

$$$$
x10889
     RDKit          3D

 23 24  0  0  0  0  0  0  0  0999 V2000
   12.0485   -2.7312   24.3226 S   0  0  0  0  0  0  0  0  0  0  0  0
   10.4937   -2.2781   24.2381 N   0  0  0  0  0  0  0  0  0  0  0  0
   13.0690    1.6021   22.8955 N   0  0  0  0  0  0  0  0  0  0  0  0
    9.4414   -3.1674   23.7180 C   0  0  0  0  0  0  0  0  0  0  0  0
    7.9668   -0.6030   20.1054 C   0  0  0  0  0  0  0  0  0  0  0  0
   12.0985   -3.8827   25.1683 O   0  0  0  0  0  0  0  0  0  0  0  0
   12.6467    2.8535   23.1270 C   0  0  0  0  0  0  0  0  0  0  0  0
    8.8689   -2.7304   22.3756 C   0  0  0  0  0  0  0  0  0  0  0  0
   10.3582    2.2093   23.0643 C   0  0  0  0  0  0  0  0  0  0  0  0
   10.7627    0.9014   22.8189 C   0  0  0  0  0  0  0  0  0  0  0  0
    8.5400   -0.2704   22.9296 C   0  0  0  0  0  0  0  0  0  0  0  0
    7.2764   -1.3335   21.0658 C   0  0  0  0  0  0  0  0  0  0  0  0
    6.2008   -0.9491   18.5190 C   0  0  0  0  0  0  0  0  0  0  0  0
   12.1354    0.6538   22.7454 C   0  0  0  0  0  0  0  0  0  0  0  0
    7.4330   -0.4133   18.8387 C   0  0  0  0  0  0  0  0  0  0  0  0
    5.4994   -1.6695   19.4667 C   0  0  0  0  0  0  0  0  0  0  0  0
   12.9369   -1.4431   25.1125 C   0  0  0  0  0  0  0  0  0  0  0  0
    9.8589   -0.1750   22.6164 N   0  0  0  0  0  0  0  0  0  0  0  0
   12.5228   -2.8454   22.9786 O   0  0  0  0  0  0  0  0  0  0  0  0
    7.9211    0.5887   23.5584 O   0  0  0  0  0  0  0  0  0  0  0  0
   11.3124    3.2010   23.2184 C   0  0  0  0  0  0  0  0  0  0  0  0
    7.8721   -1.5614   22.4483 C   0  0  1  0  0  0  0  0  0  0  0  0
    6.0326   -1.8589   20.7350 C   0  0  0  0  0  0  0  0  0  0  0  0
  2  1  1  0
  4  2  1  0
  6  1  2  0
  7  3  2  0
  8  4  1  0
 10  9  1  0
 12  5  2  0
 14 10  2  0
 14  3  1  0
 15 13  2  0
 15  5  1  0
 16 13  1  0
  1 17  1  0
 18 10  1  0
 18 11  1  0
 19  1  2  0
 20 11  2  0
 21  9  2  0
 21  7  1  0
 22 11  1  0
 22  8  1  6
 22 12  1  0
 23 16  2  0
 23 12  1  0
M  END
>  <cid>  (17) 
ADA-UNI-f8e79267-2

>  <score>  (17) 
-17.5417

$$$$
x10237
     RDKit          3D

 25 27  0  0  0  0  0  0  0  0999 V2000
    7.2985   -6.0864   22.1209 N   0  0  0  0  0  0  0  0  0  0  0  0
    9.2138   -0.8895   22.8610 N   0  0  0  0  0  0  0  0  0  0  0  0
    7.4926   -2.4421   22.5416 N   0  0  0  0  0  0  0  0  0  0  0  0
    5.7667   -0.0649   20.9718 C   0  0  0  0  0  0  0  0  0  0  0  0
   13.2701   -0.2418   23.6962 C   0  0  0  0  0  0  0  0  0  0  0  0
    9.6768   -3.0527   22.3663 O   0  0  0  0  0  0  0  0  0  0  0  0
    7.2571   -0.2690   19.0682 C   0  0  0  0  0  0  0  0  0  0  0  0
   12.5549    0.6906   22.9571 C   0  0  0  0  0  0  0  0  0  0  0  0
    6.1614   -6.1819   21.4190 C   0  0  0  0  0  0  0  0  0  0  0  0
    8.2896    0.2298   22.6436 C   0  0  0  0  0  0  0  0  0  0  0  0
   11.2518   -1.5312   24.0012 C   0  0  0  0  0  0  0  0  0  0  0  0
   10.5446   -0.5927   23.2560 C   0  0  0  0  0  0  0  0  0  0  0  0
    4.7965   -0.9886   20.2695 C   0  0  0  0  0  0  0  0  0  0  0  0
    6.9716   -3.7042   22.1970 C   0  0  0  0  0  0  0  0  0  0  0  0
    7.6824   -4.8660   22.5031 C   0  0  0  0  0  0  0  0  0  0  0  0
    6.2533   -1.1908   18.4235 C   0  0  0  0  0  0  0  0  0  0  0  0
    8.8242   -2.2031   22.5751 C   0  0  0  0  0  0  0  0  0  0  0  0
    5.8014   -3.8331   21.4606 C   0  0  0  0  0  0  0  0  0  0  0  0
   12.5994   -1.3340   24.2154 C   0  0  0  0  0  0  0  0  0  0  0  0
    7.1509   -0.3534   20.5367 N   0  0  0  0  0  0  0  0  0  0  0  0
    4.9159   -0.8889   18.8425 O   0  0  0  0  0  0  0  0  0  0  0  0
    8.1147    0.5471   21.1830 C   0  0  0  0  0  0  0  0  0  0  0  0
   11.1941    0.5305   22.7443 C   0  0  0  0  0  0  0  0  0  0  0  0
    5.3881   -5.0891   21.0597 C   0  0  0  0  0  0  0  0  0  0  0  0
   13.4605   -2.4699   25.2118 Cl  0  0  0  0  0  0  0  0  0  0  0  0
  8  5  2  0
  9  1  2  0
 10  2  1  0
 12  2  1  0
 12 11  1  0
 13  4  1  0
 14  3  1  0
 15 14  2  0
 15  1  1  0
 16  7  1  0
 17  6  2  0
 17  3  1  0
 17  2  1  0
 18 14  1  0
 19 11  2  0
 19  5  1  0
 20  7  1  0
 20  4  1  0
 21 16  1  0
 21 13  1  0
 22 20  1  0
 22 10  1  0
 23 12  2  0
 23  8  1  0
 24 18  2  0
 24  9  1  0
 25 19  1  0
M  END
>  <cid>  (18) 
JOR-UNI-2fc98d0b-6

>  <score>  (18) 
-21.718

$$$$
x10996
     RDKit          3D

 17 18  0  0  0  0  0  0  0  0999 V2000
   12.9782    6.6309   21.9355 C   0  0  0  0  0  0  0  0  0  0  0  0
   11.0982    0.7050   23.2222 N   0  0  0  0  0  0  0  0  0  0  0  0
   11.6623    6.5574   22.1795 N   0  0  0  0  0  0  0  0  0  0  0  0
   12.0803   -3.1132   24.5560 C   0  0  0  0  0  0  0  0  0  0  0  0
   12.6470   -0.7814   24.2871 C   0  0  0  0  0  0  0  0  0  0  0  0
   12.8890   -2.0284   24.8265 C   0  0  0  0  0  0  0  0  0  0  0  0
   13.8245    5.5401   21.9915 C   0  0  0  0  0  0  0  0  0  0  0  0
   11.0247   -2.9531   23.6690 C   0  0  0  0  0  0  0  0  0  0  0  0
   11.2967    2.9302   22.7084 N   0  0  0  0  0  0  0  0  0  0  0  0
   11.9217    4.1919   22.5414 C   0  0  0  0  0  0  0  0  0  0  0  0
   13.1331    1.7301   23.3329 O   0  0  0  0  0  0  0  0  0  0  0  0
   11.9308    1.7831   23.1028 C   0  0  0  0  0  0  0  0  0  0  0  0
   13.2870    4.3025   22.3066 C   0  0  0  0  0  0  0  0  0  0  0  0
   11.5413   -0.6155   23.4587 C   0  0  0  0  0  0  0  0  0  0  0  0
   11.1570    5.3561   22.4803 C   0  0  0  0  0  0  0  0  0  0  0  0
   10.7591   -1.7108   23.1116 C   0  0  0  0  0  0  0  0  0  0  0  0
   14.2650   -2.2360   25.8706 Cl  0  0  0  0  0  0  0  0  0  0  0  0
  3  1  2  0
  6  5  1  0
  6  4  2  0
  7  1  1  0
  8  4  1  0
 10  9  1  0
 12 11  2  0
 12  9  1  0
 12  2  1  0
 13  7  2  0
 13 10  1  0
 14  2  1  0
 14  5  2  0
 15 10  2  0
 15  3  1  0
 16 14  1  0
 16  8  2  0
 17  6  1  0
M  END
>  <cid>  (19) 
JOR-UNI-2fc98d0b-7

>  <score>  (19) 
-18.6924

$$$$
x10236
     RDKit          3D

 25 27  0  0  0  0  0  0  0  0999 V2000
    9.4884   -2.1660   22.7377 N   0  0  0  0  0  0  0  0  0  0  0  0
    4.5918   -1.0026   19.4142 N   0  0  0  0  0  0  0  0  0  0  0  0
    5.0302   -5.8994   21.5131 C   0  0  0  0  0  0  0  0  0  0  0  0
   13.6298   -2.7377   23.0343 C   0  0  0  0  0  0  0  0  0  0  0  0
    5.1710   -0.3263   18.4131 C   0  0  0  0  0  0  0  0  0  0  0  0
    7.4645   -4.5525   22.6015 C   0  0  0  0  0  0  0  0  0  0  0  0
   13.0611   -2.3590   21.8274 C   0  0  0  0  0  0  0  0  0  0  0  0
    7.3242   -0.4635   19.4166 C   0  0  0  0  0  0  0  0  0  0  0  0
    8.6882   -2.6903   23.8576 C   0  0  0  0  0  0  0  0  0  0  0  0
   11.4769   -2.5314   24.1018 C   0  0  0  0  0  0  0  0  0  0  0  0
   10.9060   -2.2029   22.8733 C   0  0  0  0  0  0  0  0  0  0  0  0
    5.0670   -4.3932   21.7479 C   0  0  0  0  0  0  0  0  0  0  0  0
    7.4038   -6.0664   22.3589 C   0  0  0  0  0  0  0  0  0  0  0  0
    6.5256   -0.0313   18.3738 C   0  0  0  0  0  0  0  0  0  0  0  0
    6.0506   -4.0220   22.8615 C   0  0  0  0  0  0  0  0  0  0  0  0
    6.4291   -6.4424   21.2411 C   0  0  0  0  0  0  0  0  0  0  0  0
    5.3744   -1.4065   20.4179 C   0  0  0  0  0  0  0  0  0  0  0  0
    8.8557   -1.5142   21.6520 C   0  0  0  0  0  0  0  0  0  0  0  0
   12.8297   -2.8029   24.1534 C   0  0  0  0  0  0  0  0  0  0  0  0
    7.5324   -1.7636   21.4847 N   0  0  0  0  0  0  0  0  0  0  0  0
    9.4967   -0.7558   20.9343 O   0  0  0  0  0  0  0  0  0  0  0  0
    8.4235   -4.1847   23.7473 C   0  0  0  0  0  0  0  0  0  0  0  0
   11.7044   -2.0840   21.7422 C   0  0  0  0  0  0  0  0  0  0  0  0
    6.7523   -1.1784   20.4616 C   0  0  0  0  0  0  0  0  0  0  0  0
   13.5364   -3.2671   25.6775 Cl  0  0  0  0  0  0  0  0  0  0  0  0
  5  2  2  0
  7  4  2  0
  9  1  1  0
 11  1  1  0
 11 10  1  0
 12  3  1  0
 13  6  1  0
 14  5  1  0
 14  8  2  0
 15 12  1  0
 15  6  1  0
 16 13  1  0
 16  3  1  0
 17  2  1  0
 18  1  1  0
 19 10  2  0
 19  4  1  0
 20 18  1  0
 21 18  2  0
 22  9  1  0
  6 22  1  0
 23 11  2  0
 23  7  1  0
 24 20  1  0
 24 17  2  0
 24  8  1  0
 25 19  1  0
M  END
>  <cid>  (20) 
JOR-UNI-2fc98d0b-12

>  <score>  (20) 
-25.3324

$$$$
x10049
     RDKit          3D

 21 22  0  0  0  0  0  0  0  0999 V2000
   11.6301   -3.2640   24.0507 O   0  0  0  0  0  0  0  0  0  0  0  0
   12.8119   -2.4593   23.9538 S   0  0  0  0  0  0  0  0  0  0  0  0
   13.6388   -2.3067   25.1127 O   0  0  0  0  0  0  0  0  0  0  0  0
   13.7209   -3.0909   22.7950 N   0  0  0  0  0  0  0  0  0  0  0  0
   12.3086   -0.8422   23.4550 C   0  0  0  0  0  0  0  0  0  0  0  0
   13.1652    0.2308   23.6351 C   0  0  0  0  0  0  0  0  0  0  0  0
   12.7774    1.4839   23.2002 C   0  0  0  0  0  0  0  0  0  0  0  0
   11.0677   -0.6759   22.8595 C   0  0  0  0  0  0  0  0  0  0  0  0
   10.6773    0.5924   22.4316 C   0  0  0  0  0  0  0  0  0  0  0  0
   11.5410    1.6831   22.5891 C   0  0  0  0  0  0  0  0  0  0  0  0
   11.1103    3.0405   22.0963 C   0  0  0  0  0  0  0  0  0  0  0  0
    9.6053    3.1946   22.1678 C   0  0  0  0  0  0  0  0  0  0  0  0
    8.9141    2.0717   21.4138 C   0  0  0  0  0  0  0  0  0  0  0  0
    9.3568    0.7505   21.8669 N   0  0  0  0  0  0  0  0  0  0  0  0
    8.2779   -0.1592   22.2661 C   0  0  0  0  0  0  0  0  0  0  0  0
    7.5820   -0.8108   21.0852 C   0  0  0  0  0  0  0  0  0  0  0  0
    6.9909    0.2269   20.2284 N   0  0  0  0  0  0  0  0  0  0  0  0
    7.0165    0.0584   18.6166 S   0  0  0  0  0  0  0  0  0  0  0  0
    8.0012   -0.9353   18.3229 O   0  0  0  0  0  0  0  0  0  0  0  0
    7.1729    1.3665   18.0604 O   0  0  0  0  0  0  0  0  0  0  0  0
    5.4522   -0.5601   18.1250 C   0  0  0  0  0  0  0  0  0  0  0  0
  2  1  2  0
  3  2  2  0
  2  4  1  0
  5  2  1  0
  6  5  2  0
  7  6  1  0
  8  5  1  0
  9  8  2  0
 10  9  1  0
 10  7  2  0
 11 10  1  0
 12 11  1  0
 13 12  1  0
 14 13  1  0
 14  9  1  0
 15 14  1  0
 16 15  1  0
 17 16  1  0
 18 17  1  0
 19 18  2  0
 20 18  2  0
 18 21  1  0
M  END
>  <cid>  (21) 
DUN-NEW-f8ce3686-14

>  <score>  (21) 
-15.6985

$$$$
x2600
     RDKit          3D

 18 19  0  0  0  0  0  0  0  0999 V2000
   12.2652    6.5077   26.4647 N   0  0  0  0  0  0  0  0  0  0  0  0
   12.2502    6.0075   25.4379 C   0  0  0  0  0  0  0  0  0  0  0  0
   12.2409    5.4128   24.1255 C   0  0  0  0  0  0  0  0  0  0  0  0
   12.8108    6.0854   23.0475 C   0  0  0  0  0  0  0  0  0  0  0  0
   12.8445    5.4814   21.8016 C   0  0  0  0  0  0  0  0  0  0  0  0
   12.3093    4.2142   21.6306 C   0  0  0  0  0  0  0  0  0  0  0  0
   11.6962    4.1431   23.9484 C   0  0  0  0  0  0  0  0  0  0  0  0
   11.7330    3.5330   22.6971 C   0  0  0  0  0  0  0  0  0  0  0  0
   11.1797    2.1396   22.5172 C   0  0  0  0  0  0  0  0  0  0  0  0
   12.0787    1.0840   23.1307 C   0  0  0  0  0  0  0  0  0  0  0  0
   13.2973    1.2326   23.2216 O   0  0  0  0  0  0  0  0  0  0  0  0
   11.4288   -0.0241   23.5443 N   0  0  0  0  0  0  0  0  0  0  0  0
   12.0119   -1.1954   24.0662 C   0  0  0  0  0  0  0  0  0  0  0  0
   11.2960   -2.3911   24.1190 C   0  0  0  0  0  0  0  0  0  0  0  0
   11.7554   -3.5010   24.7086 N   0  0  0  0  0  0  0  0  0  0  0  0
   12.9744   -3.4475   25.2589 C   0  0  0  0  0  0  0  0  0  0  0  0
   13.7695   -2.3133   25.2474 C   0  0  0  0  0  0  0  0  0  0  0  0
   13.2788   -1.1720   24.6375 C   0  0  0  0  0  0  0  0  0  0  0  0
  2  1  3  0
  3  2  1  0
  4  3  2  0
  5  4  1  0
  6  5  2  0
  7  3  1  0
  8  7  2  0
  8  6  1  0
  9  8  1  0
 10  9  1  0
 11 10  2  0
 12 10  1  0
 13 12  1  0
 14 13  2  0
 15 14  1  0
 16 15  2  0
 17 16  1  0
 18 17  2  0
 18 13  1  0
M  END
>  <cid>  (22) 
ANN-UNI-26382800-5

>  <score>  (22) 
-17.3268

$$$$
x3351
     RDKit          3D

 13 14  0  0  0  0  0  0  0  0999 V2000
   14.6295   -2.4558   26.2972 F   0  0  0  0  0  0  0  0  0  0  0  0
   13.5925   -2.2652   25.4391 C   0  0  0  0  0  0  0  0  0  0  0  0
   12.7528   -3.3284   25.1819 C   0  0  0  0  0  0  0  0  0  0  0  0
   11.7140   -3.1535   24.2835 C   0  0  0  0  0  0  0  0  0  0  0  0
   13.4605   -1.0221   24.8605 C   0  0  0  0  0  0  0  0  0  0  0  0
   12.4177   -0.8355   23.9583 C   0  0  0  0  0  0  0  0  0  0  0  0
   11.5533   -1.9111   23.6810 C   0  0  0  0  0  0  0  0  0  0  0  0
   10.6192   -1.4690   22.7784 N   0  0  0  0  0  0  0  0  0  0  0  0
   10.8727   -0.1574   22.4826 C   0  0  0  0  0  0  0  0  0  0  0  0
   11.9620    0.2817   23.1773 C   0  0  0  0  0  0  0  0  0  0  0  0
   12.5640    1.6518   23.1482 C   0  0  0  0  0  0  0  0  0  0  0  0
   11.7025    2.5212   22.3433 N   0  0  0  0  0  0  0  0  0  0  0  0
   12.1857    3.9021   22.3404 C   0  0  0  0  0  0  0  0  0  0  0  0
  2  1  1  0
  3  2  2  0
  4  3  1  0
  5  2  1  0
  6  5  2  0
  7  4  2  0
  7  6  1  0
  8  7  1  0
  9  8  1  0
 10  9  2  0
 10  6  1  0
 11 10  1  0
 12 11  1  0
 13 12  1  0
M  END
>  <cid>  (23) 
DAR-DIA-eace69ff-36

>  <score>  (23) 
-10.314

$$$$
x0689
     RDKit          3D

 18 19  0  0  0  0  0  0  0  0999 V2000
    6.9600   -2.0683   22.8974 N   0  0  0  0  0  0  0  0  0  0  0  0
    5.5272   -3.0971   21.1554 C   0  0  0  0  0  0  0  0  0  0  0  0
    5.7893   -0.7499   21.5147 O   0  0  0  0  0  0  0  0  0  0  0  0
    6.0929   -1.8806   21.8772 C   0  0  0  0  0  0  0  0  0  0  0  0
    7.4606   -3.3618   23.3645 C   0  0  0  0  0  0  0  0  0  0  0  0
    8.9589   -3.4060   23.2265 C   0  0  0  0  0  0  0  0  0  0  0  0
    9.0401   -0.9836   23.5675 C   0  0  0  0  0  0  0  0  0  0  0  0
    7.5360   -0.9705   23.6728 C   0  0  0  0  0  0  0  0  0  0  0  0
   12.0403   -1.9733   22.9027 C   0  0  0  0  0  0  0  0  0  0  0  0
   11.8082   -2.4339   21.6298 C   0  0  0  0  0  0  0  0  0  0  0  0
   12.7118   -1.8432   20.7100 C   0  0  0  0  0  0  0  0  0  0  0  0
   13.5244   -0.9221   21.2807 C   0  0  0  0  0  0  0  0  0  0  0  0
    9.5522   -2.2986   23.9944 N   0  0  0  0  0  0  0  0  0  0  0  0
   11.4372   -1.4182   25.3234 O   0  0  0  0  0  0  0  0  0  0  0  0
   11.4234   -3.7855   24.6158 O   0  0  0  0  0  0  0  0  0  0  0  0
   11.1463   -2.4102   24.3374 S   0  0  0  0  0  0  0  0  0  0  0  0
   13.3597   -0.8839   22.9761 S   0  0  0  0  0  0  0  0  0  0  0  0
    4.9857   -2.8360   19.4406 S   0  0  0  0  0  0  0  0  0  0  0  0
  4  3  2  0
  4  2  1  0
  4  1  1  0
  5  1  1  0
  6  5  1  0
  8  7  1  0
  8  1  1  0
 10  9  2  0
 11 10  1  0
 12 11  2  0
 13  7  1  0
 13  6  1  0
 16 14  2  0
 16 13  1  0
 16  9  1  0
 16 15  2  0
 17 12  1  0
 17  9  1  0
  2 18  1  0
M  END
>  <cid>  (24) 
MAK-UNK-6435e6c2-1

>  <score>  (24) 
-14.2278

$$$$
x2779
     RDKit          3D

 16 17  0  0  0  0  0  0  0  0999 V2000
   12.8810    0.8678   23.0973 O   0  0  0  0  0  0  0  0  0  0  0  0
   12.2643   -0.1737   22.9609 C   0  0  0  0  0  0  0  0  0  0  0  0
   13.0044   -1.4623   22.6721 C   0  0  0  0  0  0  0  0  0  0  0  0
   10.9177   -0.2129   22.9417 N   0  0  0  0  0  0  0  0  0  0  0  0
   10.1220   -1.4373   22.8101 C   0  0  0  0  0  0  0  0  0  0  0  0
    9.3292   -1.3772   21.5245 C   0  0  0  0  0  0  0  0  0  0  0  0
    8.4430   -0.1972   21.5196 N   0  0  0  0  0  0  0  0  0  0  0  0
    9.2402    1.0378   21.6619 C   0  0  0  0  0  0  0  0  0  0  0  0
   10.0892    0.9975   22.9324 C   0  0  0  0  0  0  0  0  0  0  0  0
    7.6355   -0.1511   20.2982 C   0  0  0  0  0  0  0  0  0  0  0  0
    6.6064   -1.2393   20.2145 C   0  0  0  0  0  0  0  0  0  0  0  0
    5.7995   -1.5769   18.7569 S   0  0  0  0  0  0  0  0  0  0  0  0
    4.8595   -2.8017   19.4826 C   0  0  0  0  0  0  0  0  0  0  0  0
    5.1411   -2.9732   20.7912 C   0  0  0  0  0  0  0  0  0  0  0  0
    6.1463   -2.0887   21.2601 C   0  0  0  0  0  0  0  0  0  0  0  0
   13.0683   -1.6803   20.8791 S   0  0  0  0  0  0  0  0  0  0  0  0
  2  1  2  0
  3  2  1  0
  4  2  1  0
  5  4  1  0
  6  5  1  0
  7  6  1  0
  8  7  1  0
  9  4  1  0
  9  8  1  0
 10  7  1  0
 11 10  1  0
 12 11  1  0
 13 12  1  0
 14 13  2  0
 15 14  1  0
 15 11  2  0
  3 16  1  0
M  END
>  <cid>  (25) 
MAK-UNK-6435e6c2-2

>  <score>  (25) 
-13.8881

$$$$
x1386
     RDKit          3D

 16 17  0  0  0  0  0  0  0  0999 V2000
   11.3166   -2.0090   23.2582 N   0  0  0  0  0  0  0  0  0  0  0  0
   13.3566   -0.6125   23.1911 C   0  0  0  0  0  0  0  0  0  0  0  0
   12.5732   -1.7936   25.1020 O   0  0  0  0  0  0  0  0  0  0  0  0
   12.3870   -1.5245   23.9206 C   0  0  0  0  0  0  0  0  0  0  0  0
   11.0556   -1.8671   21.8306 C   0  0  0  0  0  0  0  0  0  0  0  0
   10.2267   -2.7262   23.9138 C   0  0  0  0  0  0  0  0  0  0  0  0
    8.9222   -1.9963   23.6909 C   0  0  0  0  0  0  0  0  0  0  0  0
    7.3785   -1.1006   22.0749 C   0  0  0  0  0  0  0  0  0  0  0  0
    6.7438   -1.3928   20.7396 C   0  0  0  0  0  0  0  0  0  0  0  0
    5.6491   -2.2785   20.5045 C   0  0  0  0  0  0  0  0  0  0  0  0
    5.1519   -2.2095   19.2510 C   0  0  0  0  0  0  0  0  0  0  0  0
    7.1239   -0.7856   19.5474 C   0  0  0  0  0  0  0  0  0  0  0  0
    9.7565   -1.1255   21.6261 C   0  0  0  0  0  0  0  0  0  0  0  0
    8.6352   -1.8287   22.2626 N   0  0  0  0  0  0  0  0  0  0  0  0
    5.9930   -1.0809   18.3176 S   0  0  0  0  0  0  0  0  0  0  0  0
   12.7006    1.0718   23.1271 S   0  0  0  0  0  0  0  0  0  0  0  0
  4  3  2  0
  4  2  1  0
  4  1  1  0
  5  1  1  0
  6  1  1  0
  7  6  1  0
  9  8  1  0
 10  9  1  0
 11 10  2  0
 12  9  2  0
 13  5  1  0
 14 13  1  0
 14  8  1  0
 14  7  1  0
 15 12  1  0
 15 11  1  0
  2 16  1  0
M  END
>  <cid>  (26) 
MAK-UNK-6435e6c2-3

>  <score>  (26) 
-13.8422

$$$$
x1384
     RDKit          3D

 17 18  0  0  0  0  0  0  0  0999 V2000
    7.8204   -0.8965   19.8074 N   0  0  0  0  0  0  0  0  0  0  0  0
    5.9341   -1.4709   18.5015 C   0  0  0  0  0  0  0  0  0  0  0  0
    6.9249    0.7064   18.4523 O   0  0  0  0  0  0  0  0  0  0  0  0
    6.9393   -0.4245   18.9090 C   0  0  0  0  0  0  0  0  0  0  0  0
   13.1676   -1.8263   24.2507 C   0  0  0  0  0  0  0  0  0  0  0  0
   12.4392   -0.6497   23.6612 C   0  0  0  0  0  0  0  0  0  0  0  0
    8.6209   -0.1945   20.7349 C   0  0  0  0  0  0  0  0  0  0  0  0
    8.5154    1.1788   20.9486 C   0  0  0  0  0  0  0  0  0  0  0  0
    9.3296    1.7801   21.8916 C   0  0  0  0  0  0  0  0  0  0  0  0
   10.2390    1.0377   22.6249 C   0  0  0  0  0  0  0  0  0  0  0  0
   10.3307   -0.3302   22.4075 C   0  0  0  0  0  0  0  0  0  0  0  0
    9.5241   -0.9530   21.4633 C   0  0  0  0  0  0  0  0  0  0  0  0
   11.0268   -2.5297   23.4434 C   0  0  0  0  0  0  0  0  0  0  0  0
   12.0821   -2.8640   24.4757 C   0  0  0  0  0  0  0  0  0  0  0  0
   11.2617   -1.1127   23.1427 N   0  0  0  0  0  0  0  0  0  0  0  0
   12.8037    0.5112   23.6534 O   0  0  0  0  0  0  0  0  0  0  0  0
    5.0577   -2.2299   19.8930 S   0  0  0  0  0  0  0  0  0  0  0  0
  4  3  2  0
  4  2  1  0
  4  1  1  0
  6  5  1  0
  7  1  1  0
  8  7  2  0
  9  8  1  0
 10  9  2  0
 11 10  1  0
 12 11  2  0
 12  7  1  0
 14 13  1  0
 14  5  1  0
 15 13  1  0
 15 11  1  0
 15  6  1  0
 16  6  2  0
  2 17  1  0
M  END
>  <cid>  (27) 
MAK-UNK-6435e6c2-4

>  <score>  (27) 
-14.6788

$$$$
x0691
     RDKit          3D

 20 21  0  0  0  0  0  0  0  0999 V2000
    8.0452   -0.7150   21.9993 N   0  0  0  0  0  0  0  0  0  0  0  0
   12.2784   -1.7354   21.2615 C   0  0  0  0  0  0  0  0  0  0  0  0
    8.9049    1.0386   23.4969 O   0  0  0  0  0  0  0  0  0  0  0  0
   13.3107   -0.9195   21.6572 C   0  0  0  0  0  0  0  0  0  0  0  0
    5.1243   -0.3658   19.1621 C   0  0  0  0  0  0  0  0  0  0  0  0
    5.4866   -0.0243   17.7413 C   0  0  0  0  0  0  0  0  0  0  0  0
   13.0274    0.0867   22.5591 C   0  0  0  0  0  0  0  0  0  0  0  0
   11.7373    0.2626   23.0354 C   0  0  0  0  0  0  0  0  0  0  0  0
   10.7215   -0.5785   22.6074 C   0  0  0  0  0  0  0  0  0  0  0  0
   10.9838   -1.5964   21.7078 C   0  0  0  0  0  0  0  0  0  0  0  0
    8.3048   -0.0858   20.6945 C   0  0  0  0  0  0  0  0  0  0  0  0
    7.5351   -0.8136   19.6240 C   0  0  0  0  0  0  0  0  0  0  0  0
    5.8712   -1.4777   21.2539 C   0  0  0  0  0  0  0  0  0  0  0  0
    6.6105   -0.7279   22.3291 C   0  0  0  0  0  0  0  0  0  0  0  0
   12.5406   -2.7247   20.3797 F   0  0  0  0  0  0  0  0  0  0  0  0
    6.1095   -0.8495   19.9557 N   0  0  0  0  0  0  0  0  0  0  0  0
    8.8515   -1.3175   24.2475 O   0  0  0  0  0  0  0  0  0  0  0  0
    3.9744   -0.2168   19.5539 O   0  0  0  0  0  0  0  0  0  0  0  0
    9.0780   -0.3533   23.2184 S   0  0  0  0  0  0  0  0  0  0  0  0
    5.5189    1.7582   17.4018 S   0  0  0  0  0  0  0  0  0  0  0  0
  4  2  2  0
  6  5  1  0
  7  4  1  0
  8  7  2  0
  9  8  1  0
 10  9  2  0
 10  2  1  0
 11  1  1  0
 12 11  1  0
 14 13  1  0
 14  1  1  0
 15  2  1  0
 16 13  1  0
 16  5  1  0
 16 12  1  0
 18  5  2  0
 19  3  2  0
 19  9  1  0
 19  1  1  0
 19 17  2  0
  6 20  1  0
M  END
>  <cid>  (28) 
MAK-UNK-6435e6c2-5

>  <score>  (28) 
-13.4614

$$$$
x0755
     RDKit          3D

 21 22  0  0  0  0  0  0  0  0999 V2000
    8.9715   -1.3883   22.6408 N   0  0  0  0  0  0  0  0  0  0  0  0
    6.0150   -1.6226   20.5686 C   0  0  0  0  0  0  0  0  0  0  0  0
    6.6534   -1.1317   23.4196 O   0  0  0  0  0  0  0  0  0  0  0  0
    5.5060   -1.7415   19.2967 C   0  0  0  0  0  0  0  0  0  0  0  0
   12.8868   -2.4879   23.0722 C   0  0  0  0  0  0  0  0  0  0  0  0
   13.4307   -2.6243   24.4762 C   0  0  0  0  0  0  0  0  0  0  0  0
    5.9486   -0.8650   18.3263 C   0  0  0  0  0  0  0  0  0  0  0  0
    6.8780    0.1177   18.6068 C   0  0  0  0  0  0  0  0  0  0  0  0
    7.3722    0.2151   19.8860 C   0  0  0  0  0  0  0  0  0  0  0  0
    6.9565   -0.6512   20.8909 C   0  0  0  0  0  0  0  0  0  0  0  0
   10.0007   -1.1414   21.6186 C   0  0  0  0  0  0  0  0  0  0  0  0
   10.9312   -2.3247   21.5827 C   0  0  0  0  0  0  0  0  0  0  0  0
   10.5230   -2.7428   23.9325 C   0  0  0  0  0  0  0  0  0  0  0  0
    9.5620   -1.5822   23.9763 C   0  0  0  0  0  0  0  0  0  0  0  0
    5.5756   -2.4844   21.5140 F   0  0  0  0  0  0  0  0  0  0  0  0
    8.2858    1.1774   20.1536 F   0  0  0  0  0  0  0  0  0  0  0  0
   11.5420   -2.5230   22.9001 N   0  0  0  0  0  0  0  0  0  0  0  0
    7.9617    0.8592   22.7581 O   0  0  0  0  0  0  0  0  0  0  0  0
   13.6569   -2.3239   22.1363 O   0  0  0  0  0  0  0  0  0  0  0  0
    7.5910   -0.5071   22.5397 S   0  0  0  0  0  0  0  0  0  0  0  0
   13.3282   -1.1595   25.5493 S   0  0  0  0  0  0  0  0  0  0  0  0
  4  2  2  0
  6  5  1  0
  7  4  1  0
  8  7  2  0
  9  8  1  0
 10  9  2  0
 10  2  1  0
 11  1  1  0
 12 11  1  0
 14 13  1  0
 14  1  1  0
 15  2  1  0
 16  9  1  0
 17 12  1  0
 17  5  1  0
 17 13  1  0
 19  5  2  0
 20  3  2  0
 20 10  1  0
 20 18  2  0
 20  1  1  0
  6 21  1  0
M  END
>  <cid>  (29) 
MAK-UNK-6435e6c2-6

>  <score>  (29) 
-13.8306

$$$$
x0478
     RDKit          3D

 15 15  0  0  0  0  0  0  0  0999 V2000
    6.8572    0.6957   19.6313 C   0  0  0  0  0  0  0  0  0  0  0  0
    8.5849    0.5001   21.1368 C   0  0  0  0  0  0  0  0  0  0  0  0
    9.7950    1.0612   21.8670 C   0  0  0  0  0  0  0  0  0  0  0  0
   10.0196    2.4235   21.8882 C   0  0  0  0  0  0  0  0  0  0  0  0
   11.1245    2.9333   22.5443 C   0  0  0  0  0  0  0  0  0  0  0  0
   12.0106    2.0924   23.1857 C   0  0  0  0  0  0  0  0  0  0  0  0
   11.7917    0.7269   23.1740 C   0  0  0  0  0  0  0  0  0  0  0  0
   13.5986   -2.4539   25.3078 C   0  0  0  0  0  0  0  0  0  0  0  0
   10.6792    0.2203   22.5116 C   0  0  0  0  0  0  0  0  0  0  0  0
   12.7465   -0.1366   23.8547 N   0  0  0  0  0  0  0  0  0  0  0  0
    7.7576    1.3756   20.4482 O   0  0  0  0  0  0  0  0  0  0  0  0
    8.3326   -0.6574   21.1141 O   0  0  0  0  0  0  0  0  0  0  0  0
   11.0519   -1.8821   24.8458 O   0  0  0  0  0  0  0  0  0  0  0  0
   12.2074   -2.5740   23.0201 O   0  0  0  0  0  0  0  0  0  0  0  0
   12.3849   -1.7637   24.2255 S   0  0  0  0  0  0  0  0  0  0  0  0
  3  2  1  0
  4  3  2  0
  5  4  1  0
  6  5  2  0
  7  6  1  0
  9  3  1  0
  9  7  2  0
 10  7  1  0
 11  1  1  0
 11  2  1  0
 12  2  2  0
 15  8  1  0
 15 14  2  0
 15 13  2  0
 15 10  1  0
M  END
>  <cid>  (30) 
MAK-UNK-6435e6c2-7

>  <score>  (30) 
-15.7149

$$$$
x0107
     RDKit          3D

 11 11  0  0  0  0  0  0  0  0999 V2000
    8.4664   -0.9951   21.2086 C   0  0  0  0  0  0  0  0  0  0  0  0
    9.5065   -1.7235   22.0575 C   0  0  0  0  0  0  0  0  0  0  0  0
   11.4694   -1.6600   23.6431 C   0  0  0  0  0  0  0  0  0  0  0  0
   11.1729   -2.8967   24.2021 C   0  0  0  0  0  0  0  0  0  0  0  0
   13.2444   -3.0443   25.1680 C   0  0  0  0  0  0  0  0  0  0  0  0
   13.6303   -1.8115   24.6577 C   0  0  0  0  0  0  0  0  0  0  0  0
   12.7238   -1.1004   23.8719 C   0  0  0  0  0  0  0  0  0  0  0  0
   13.0863    0.2617   23.2864 C   0  0  0  0  0  0  0  0  0  0  0  0
   10.4741   -0.9705   22.8371 N   0  0  0  0  0  0  0  0  0  0  0  0
   12.0540   -3.5494   24.9362 N   0  0  0  0  0  0  0  0  0  0  0  0
    9.5131   -2.9053   22.0815 O   0  0  0  0  0  0  0  0  0  0  0  0
  2  1  1  0
  4  3  2  0
  6  5  1  0
  7  6  2  0
  7  3  1  0
  8  7  1  0
  9  3  1  0
  9  2  1  0
 10  5  2  0
 10  4  1  0
 11  2  2  0
M  END
>  <cid>  (31) 
MAK-UNK-6435e6c2-8

>  <score>  (31) 
-8.91946

$$$$
x0464
     RDKit          3D

 15 16  0  0  0  0  0  0  0  0999 V2000
   12.6042   -2.0893   21.2133 C   0  0  0  0  0  0  0  0  0  0  0  0
   12.0999   -1.0651   22.2276 C   0  0  2  0  0  0  0  0  0  0  0  0
   13.2774   -0.7875   23.1788 C   0  0  2  0  0  0  0  0  0  0  0  0
   13.2900   -1.5858   24.3802 C   0  0  0  0  0  0  0  0  0  0  0  0
   12.5061   -2.7928   24.3427 C   0  0  0  0  0  0  0  0  0  0  0  0
   11.0894   -2.6145   23.8169 C   0  0  0  0  0  0  0  0  0  0  0  0
    9.9559   -1.8344   22.1073 C   0  0  0  0  0  0  0  0  0  0  0  0
    9.1493   -0.6786   21.5146 C   0  0  0  0  0  0  0  0  0  0  0  0
    8.2080   -0.9546   20.5298 C   0  0  0  0  0  0  0  0  0  0  0  0
    7.4777    0.0780   19.9574 C   0  0  0  0  0  0  0  0  0  0  0  0
    7.6998    1.3874   20.3583 C   0  0  0  0  0  0  0  0  0  0  0  0
    8.6467    1.6707   21.3324 C   0  0  0  0  0  0  0  0  0  0  0  0
    9.3815    0.6369   21.9053 C   0  0  0  0  0  0  0  0  0  0  0  0
   10.8802   -1.5299   22.8746 N   0  0  0  0  0  0  0  0  0  0  0  0
   13.2394    0.5699   23.5253 O   0  0  0  0  0  0  0  0  0  0  0  0
  2  1  1  6
  3  2  1  0
  4  3  1  0
  5  4  1  0
  6  5  1  0
  8  7  1  0
  9  8  2  0
 10  9  1  0
 11 10  2  0
 12 11  1  0
 13 12  2  0
 13  8  1  0
 14  2  1  0
 14  7  1  0
 14  6  1  0
  3 15  1  1
M  END
>  <cid>  (32) 
MAK-UNK-6435e6c2-9

>  <score>  (32) 
-11.8089

$$$$
x11225
     RDKit          3D

 24 26  0  0  0  0  0  0  0  0999 V2000
    9.8286   -3.1675   22.1186 O   0  0  0  0  0  0  0  0  0  0  0  0
    8.9479   -2.4009   22.4963 C   0  0  0  0  0  0  0  0  0  0  0  0
    7.6312   -2.7111   22.4883 N   0  0  0  0  0  0  0  0  0  0  0  0
    7.0930   -3.9908   22.2002 C   0  0  0  0  0  0  0  0  0  0  0  0
    7.7421   -5.1586   22.6060 C   0  0  0  0  0  0  0  0  0  0  0  0
    7.3014   -6.3877   22.3210 N   0  0  0  0  0  0  0  0  0  0  0  0
    6.1676   -6.4870   21.6209 C   0  0  0  0  0  0  0  0  0  0  0  0
    5.4488   -5.3961   21.1726 C   0  0  0  0  0  0  0  0  0  0  0  0
    5.9049   -4.1111   21.4500 C   0  0  0  0  0  0  0  0  0  0  0  0
    5.1667   -2.9095   20.9196 C   0  0  0  0  0  0  0  0  0  0  0  0
    9.2691   -1.0161   23.0395 C   0  0  0  0  0  0  0  0  0  0  0  0
   10.7059   -0.5406   22.7607 C   0  0  2  0  0  0  0  0  0  0  0  0
   11.8015   -1.3570   23.4024 C   0  0  0  0  0  0  0  0  0  0  0  0
   11.9443   -1.5115   24.7563 C   0  0  0  0  0  0  0  0  0  0  0  0
   13.3063   -2.4741   25.1588 S   0  0  0  0  0  0  0  0  0  0  0  0
   13.7220   -2.7112   23.5281 C   0  0  0  0  0  0  0  0  0  0  0  0
   12.8312   -2.0474   22.6996 C   0  0  0  0  0  0  0  0  0  0  0  0
   10.8304    0.9289   22.9478 N   0  0  0  0  0  0  0  0  0  0  0  0
   12.1990    1.4667   22.8645 C   0  0  0  0  0  0  0  0  0  0  0  0
   12.2672    2.9059   23.3840 C   0  0  0  0  0  0  0  0  0  0  0  0
   11.2780    3.8015   22.6590 C   0  0  0  0  0  0  0  0  0  0  0  0
   11.2344    5.0939   23.2788 O   0  0  0  0  0  0  0  0  0  0  0  0
    9.8860    3.1953   22.6276 C   0  0  0  0  0  0  0  0  0  0  0  0
    9.9168    1.7456   22.1327 C   0  0  0  0  0  0  0  0  0  0  0  0
  2  1  2  0
  3  2  1  0
  4  3  1  0
  5  4  2  0
  6  5  1  0
  7  6  2  0
  8  7  1  0
  9  8  2  0
  9  4  1  0
 10  9  1  0
 11  2  1  0
 12 11  1  1
 13 12  1  0
 14 13  2  0
 15 14  1  0
 16 15  1  0
 17 16  2  0
 17 13  1  0
 18 12  1  0
 19 18  1  0
 20 19  1  0
 21 20  1  0
 21 22  1  0
 23 21  1  0
 24 23  1  0
 24 18  1  0
M  END
>  <cid>  (33) 
PET-SGC-a8a902d9-1

>  <score>  (33) 
-18.0413

$$$$
x2581
     RDKit          3D

 22 24  0  0  0  0  0  0  0  0999 V2000
    9.6315    2.8257   23.5874 O   0  0  0  0  0  0  0  0  0  0  0  0
   10.2814    2.3235   22.6849 C   0  0  0  0  0  0  0  0  0  0  0  0
   11.4089    2.8629   22.1762 N   0  0  0  0  0  0  0  0  0  0  0  0
   11.9635    4.1294   22.3982 C   0  0  0  0  0  0  0  0  0  0  0  0
   13.1276    4.3203   21.7558 N   0  0  0  0  0  0  0  0  0  0  0  0
   13.6773    5.5413   21.8215 C   0  0  0  0  0  0  0  0  0  0  0  0
   13.1223    6.6032   22.5128 C   0  0  0  0  0  0  0  0  0  0  0  0
   11.3325    5.1281   23.1505 C   0  0  0  0  0  0  0  0  0  0  0  0
   11.9370    6.3752   23.1969 C   0  0  0  0  0  0  0  0  0  0  0  0
   11.2679    7.2635   23.9993 O   0  0  0  0  0  0  0  0  0  0  0  0
   12.0252    8.0568   24.9162 C   0  0  0  0  0  0  0  0  0  0  0  0
    9.8609    1.0182   22.0426 C   0  0  0  0  0  0  0  0  0  0  0  0
   10.4764   -0.1812   22.7267 C   0  0  0  0  0  0  0  0  0  0  0  0
   11.6485   -0.0653   23.4329 C   0  0  0  0  0  0  0  0  0  0  0  0
   12.2077   -1.1694   24.1187 C   0  0  0  0  0  0  0  0  0  0  0  0
   11.5353   -2.4154   24.0660 C   0  0  0  0  0  0  0  0  0  0  0  0
   10.3423   -2.5053   23.3140 C   0  0  0  0  0  0  0  0  0  0  0  0
    9.8400   -1.4155   22.6682 C   0  0  0  0  0  0  0  0  0  0  0  0
   13.4119   -1.0731   24.8618 C   0  0  0  0  0  0  0  0  0  0  0  0
   13.9027   -2.1583   25.5301 C   0  0  0  0  0  0  0  0  0  0  0  0
   13.2405   -3.3759   25.4845 C   0  0  0  0  0  0  0  0  0  0  0  0
   12.0829   -3.5144   24.7712 C   0  0  0  0  0  0  0  0  0  0  0  0
  2  1  2  0
  3  2  1  0
  4  3  1  0
  5  4  2  0
  6  5  1  0
  7  6  2  0
  8  4  1  0
  9  7  1  0
  9  8  2  0
 10  9  1  0
 11 10  1  0
 12  2  1  0
 13 12  1  0
 14 13  2  0
 15 14  1  0
 16 15  2  0
 17 16  1  0
 18 17  2  0
 18 13  1  0
 19 15  1  0
 20 19  2  0
 21 20  1  0
 22 21  2  0
 22 16  1  0
M  END
>  <cid>  (34) 
ALV-UNI-7ff1a6f9-47

>  <score>  (34) 
-14.9652

$$$$
x10019
     RDKit          3D

 22 24  0  0  0  0  0  0  0  0999 V2000
    9.0551   -3.3095   23.5538 O   0  0  0  0  0  0  0  0  0  0  0  0
    9.5389   -2.4163   22.8663 C   0  0  0  0  0  0  0  0  0  0  0  0
   10.6256   -1.7063   23.2279 N   0  0  0  0  0  0  0  0  0  0  0  0
   11.7779   -2.1412   23.9220 C   0  0  0  0  0  0  0  0  0  0  0  0
   11.8322   -3.3566   24.6084 C   0  0  0  0  0  0  0  0  0  0  0  0
   12.8112   -3.6980   25.4541 N   0  0  0  0  0  0  0  0  0  0  0  0
   13.7849   -2.8057   25.6466 C   0  0  0  0  0  0  0  0  0  0  0  0
   13.8258   -1.5748   25.0224 C   0  0  0  0  0  0  0  0  0  0  0  0
   12.8151   -1.2170   24.1353 C   0  0  0  0  0  0  0  0  0  0  0  0
   12.8102    0.1467   23.4941 C   0  0  0  0  0  0  0  0  0  0  0  0
    8.8662   -1.9715   21.5810 C   0  0  0  0  0  0  0  0  0  0  0  0
    9.3404   -0.6907   21.0916 N   0  0  0  0  0  0  0  0  0  0  0  0
    8.5388    0.3964   20.8763 C   0  0  0  0  0  0  0  0  0  0  0  0
    7.5015    0.3332   19.8944 C   0  0  0  0  0  0  0  0  0  0  0  0
    7.2102   -0.8280   19.1336 C   0  0  0  0  0  0  0  0  0  0  0  0
    6.1894   -0.8317   18.2299 C   0  0  0  0  0  0  0  0  0  0  0  0
    5.4156    0.3037   18.0323 C   0  0  0  0  0  0  0  0  0  0  0  0
    5.6608    1.4471   18.7393 C   0  0  0  0  0  0  0  0  0  0  0  0
    6.7042    1.4883   19.6918 C   0  0  0  0  0  0  0  0  0  0  0  0
    6.8854    2.6424   20.4078 N   0  0  0  0  0  0  0  0  0  0  0  0
    7.8567    2.6474   21.3038 C   0  0  0  0  0  0  0  0  0  0  0  0
    8.6948    1.5779   21.5699 C   0  0  0  0  0  0  0  0  0  0  0  0
  2  1  2  0
  3  2  1  0
  4  3  1  0
  5  4  2  0
  6  5  1  0
  7  6  2  0
  8  7  1  0
  9  8  2  0
  9  4  1  0
  9 10  1  0
 11  2  1  0
 12 11  1  0
 13 12  1  0
 14 13  1  0
 15 14  2  0
 16 15  1  0
 17 16  2  0
 18 17  1  0
 19 18  2  0
 19 14  1  0
 20 19  1  0
 21 20  2  0
 22 21  1  0
 22 13  2  0
M  END
>  <cid>  (35) 
GAB-REV-70cc3ca5-4

>  <score>  (35) 
-16.1181

$$$$
x3080
     RDKit          3D

 26 28  0  0  0  0  0  0  0  0999 V2000
    7.7676    3.8680   21.1344 O   0  0  0  0  0  0  0  0  0  0  0  0
    8.2080    2.5209   21.3117 S   0  0  0  0  0  0  0  0  0  0  0  0
    9.5851    2.1911   21.1105 O   0  0  0  0  0  0  0  0  0  0  0  0
    7.2492    1.4956   20.2166 C   0  0  0  0  0  0  0  0  0  0  0  0
    5.8923    1.7805   19.8841 C   0  0  0  0  0  0  0  0  0  0  0  0
    5.3383    2.9695   20.2677 N   0  0  0  0  0  0  0  0  0  0  0  0
    4.1092    3.2346   19.8550 C   0  0  0  0  0  0  0  0  0  0  0  0
    3.3521    2.3870   19.0684 C   0  0  0  0  0  0  0  0  0  0  0  0
    3.8881    1.1939   18.6858 C   0  0  0  0  0  0  0  0  0  0  0  0
    5.1979    0.8398   19.0858 C   0  0  0  0  0  0  0  0  0  0  0  0
    5.8641   -0.3368   18.6675 C   0  0  0  0  0  0  0  0  0  0  0  0
    7.1679   -0.5513   18.9898 C   0  0  0  0  0  0  0  0  0  0  0  0
    7.8674    0.3656   19.7532 C   0  0  0  0  0  0  0  0  0  0  0  0
    7.8549    2.1050   22.8458 N   0  0  0  0  0  0  0  0  0  0  0  0
    8.0907    3.0982   23.8988 C   0  0  0  0  0  0  0  0  0  0  0  0
    7.6033    0.7115   23.2594 C   0  0  0  0  0  0  0  0  0  0  0  0
    8.6162   -0.2727   22.7023 C   0  0  0  0  0  0  0  0  0  0  0  0
    8.2705   -1.3380   22.1953 O   0  0  0  0  0  0  0  0  0  0  0  0
    9.9000    0.1258   22.8364 N   0  0  0  0  0  0  0  0  0  0  0  0
   11.0564   -0.5400   22.3666 C   0  0  0  0  0  0  0  0  0  0  0  0
   12.3125    0.0867   22.4627 C   0  0  0  0  0  0  0  0  0  0  0  0
   12.4819    1.4408   23.1024 C   0  0  0  0  0  0  0  0  0  0  0  0
   13.4114   -0.6024   21.9549 C   0  0  0  0  0  0  0  0  0  0  0  0
   13.2342   -1.8505   21.3927 C   0  0  0  0  0  0  0  0  0  0  0  0
   12.0470   -2.4602   21.3029 N   0  0  0  0  0  0  0  0  0  0  0  0
   10.9841   -1.8063   21.7836 C   0  0  0  0  0  0  0  0  0  0  0  0
  2  1  2  0
  3  2  2  0
  4  2  1  0
  5  4  1  0
  5  6  2  0
  7  6  1  0
  8  7  2  0
  9  8  1  0
 10  9  2  0
 10  5  1  0
 11 10  1  0
 12 11  2  0
 13 12  1  0
  4 13  2  0
 14  2  1  0
 15 14  1  0
 16 14  1  0
 17 16  1  0
 18 17  2  0
 19 17  1  0
 20 19  1  0
 21 20  2  0
 22 21  1  0
 23 21  1  0
 24 23  2  0
 25 24  1  0
 26 25  2  0
 26 20  1  0
M  END
>  <cid>  (36) 
GAB-REV-70cc3ca5-8

>  <score>  (36) 
-19.0138

$$$$
x3108
     RDKit          3D

 21 22  0  0  0  0  0  0  0  0999 V2000
   11.1743    2.9264   23.6260 O   0  0  0  0  0  0  0  0  0  0  0  0
   11.5617    1.9319   23.0162 C   0  0  0  0  0  0  0  0  0  0  0  0
   13.0049    1.4735   23.0827 C   0  0  0  0  0  0  0  0  0  0  0  0
   13.1597   -0.0292   23.1585 C   0  0  0  0  0  0  0  0  0  0  0  0
   13.3411   -0.7923   22.0139 C   0  0  0  0  0  0  0  0  0  0  0  0
   13.4828   -2.1240   22.0142 N   0  0  0  0  0  0  0  0  0  0  0  0
   13.4397   -2.7411   23.2006 C   0  0  0  0  0  0  0  0  0  0  0  0
   13.2565   -2.0767   24.3964 C   0  0  0  0  0  0  0  0  0  0  0  0
   13.1132   -0.7048   24.3657 C   0  0  0  0  0  0  0  0  0  0  0  0
   10.7427    1.1632   22.3025 N   0  0  0  0  0  0  0  0  0  0  0  0
    9.3113    1.1954   22.4998 C   0  0  0  0  0  0  0  0  0  0  0  0
    8.4896    1.3934   21.2378 C   0  0  0  0  0  0  0  0  0  0  0  0
    8.3029    2.5185   20.7966 O   0  0  0  0  0  0  0  0  0  0  0  0
    7.9798    0.2711   20.6716 N   0  0  0  0  0  0  0  0  0  0  0  0
    7.0019    0.1736   19.6454 C   0  0  0  0  0  0  0  0  0  0  0  0
    6.0735   -0.8866   19.6844 C   0  0  0  0  0  0  0  0  0  0  0  0
    6.0440   -1.8762   20.8200 C   0  0  0  0  0  0  0  0  0  0  0  0
    6.9299    1.0731   18.5771 C   0  0  0  0  0  0  0  0  0  0  0  0
    6.0361    0.9790   17.5834 N   0  0  0  0  0  0  0  0  0  0  0  0
    5.1725   -0.0372   17.6291 C   0  0  0  0  0  0  0  0  0  0  0  0
    5.1521   -0.9748   18.6408 C   0  0  0  0  0  0  0  0  0  0  0  0
  2  1  2  0
  3  2  1  0
  4  3  1  0
  5  4  2  0
  6  5  1  0
  7  6  2  0
  8  7  1  0
  9  8  2  0
  9  4  1  0
 10  2  1  0
 11 10  1  0
 12 11  1  0
 13 12  2  0
 14 12  1  0
 15 14  1  0
 16 15  2  0
 17 16  1  0
 18 15  1  0
 19 18  2  0
 20 19  1  0
 21 20  2  0
 21 16  1  0
M  END
>  <cid>  (37) 
GAB-REV-70cc3ca5-13

>  <score>  (37) 
-15.6534

$$$$
x3366
     RDKit          3D

 20 22  0  0  0  0  0  0  0  0999 V2000
   13.0878    1.4403   22.6012 O   0  0  0  0  0  0  0  0  0  0  0  0
   11.9349    1.5426   22.9991 C   0  0  0  0  0  0  0  0  0  0  0  0
   11.3535    2.7332   23.2765 N   0  0  0  0  0  0  0  0  0  0  0  0
   11.9848    3.9876   23.0534 C   0  0  0  0  0  0  0  0  0  0  0  0
   12.9269    4.1763   22.0376 C   0  0  0  0  0  0  0  0  0  0  0  0
   13.5672    5.3339   21.8255 N   0  0  0  0  0  0  0  0  0  0  0  0
   13.2641    6.3597   22.6267 C   0  0  0  0  0  0  0  0  0  0  0  0
   12.3558    6.2737   23.6641 C   0  0  0  0  0  0  0  0  0  0  0  0
   11.6932    5.0720   23.9027 C   0  0  0  0  0  0  0  0  0  0  0  0
   10.7309    4.9429   25.0546 C   0  0  0  0  0  0  0  0  0  0  0  0
   11.0528    0.3195   23.1659 C   0  0  0  0  0  0  0  0  0  0  0  0
   11.6958   -0.9189   23.7486 C   0  0  0  0  0  0  0  0  0  0  0  0
   12.8511   -0.8014   24.5184 C   0  0  0  0  0  0  0  0  0  0  0  0
   13.3355   -1.9096   25.2115 C   0  0  0  0  0  0  0  0  0  0  0  0
   14.4269   -2.0593   26.0702 N   0  0  0  0  0  0  0  0  0  0  0  0
   14.3649   -3.3152   26.4673 C   0  0  0  0  0  0  0  0  0  0  0  0
   13.3264   -4.0030   25.9366 N   0  0  0  0  0  0  0  0  0  0  0  0
   12.6571   -3.1247   25.1226 C   0  0  0  0  0  0  0  0  0  0  0  0
   11.5268   -3.2725   24.3318 C   0  0  0  0  0  0  0  0  0  0  0  0
   11.0688   -2.1610   23.6417 C   0  0  0  0  0  0  0  0  0  0  0  0
  2  1  2  0
  3  2  1  0
  4  3  1  0
  5  4  2  0
  6  5  1  0
  7  6  2  0
  8  7  1  0
  9  8  2  0
  9  4  1  0
 10  9  1  0
 11  2  1  0
 12 11  1  0
 13 12  2  0
 14 13  1  0
 15 14  1  0
 16 15  1  0
 17 16  2  0
 18 17  1  0
 18 14  2  0
 19 18  1  0
 20 19  2  0
 20 12  1  0
M  END
>  <cid>  (38) 
GAB-REV-70cc3ca5-18

>  <score>  (38) 
-16.5668

$$$$
x0678
     RDKit          3D

 16 17  0  0  0  0  0  0  0  0999 V2000
   11.4323    1.7354   23.1305 C   0  0  0  0  0  0  0  0  0  0  0  0
   11.1005    3.1407   23.6177 C   0  0  0  0  0  0  0  0  0  0  0  0
   12.2271    4.1274   23.3457 C   0  0  0  0  0  0  0  0  0  0  0  0
   11.9762    5.4561   24.0564 C   0  0  0  0  0  0  0  0  0  0  0  0
   12.3613    6.6718   23.2167 C   0  0  0  0  0  0  0  0  0  0  0  0
   13.5512    6.4520   22.2928 C   0  0  0  0  0  0  0  0  0  0  0  0
   13.5106    5.1453   21.5076 C   0  0  0  0  0  0  0  0  0  0  0  0
   12.3017    4.2811   21.8362 C   0  0  0  0  0  0  0  0  0  0  0  0
   12.9815   -0.1784   23.3081 C   0  0  0  0  0  0  0  0  0  0  0  0
   13.2047   -1.0691   24.3539 C   0  0  0  0  0  0  0  0  0  0  0  0
   13.5513   -2.3700   24.0052 C   0  0  0  0  0  0  0  0  0  0  0  0
   13.6427   -2.6940   22.6595 C   0  0  0  0  0  0  0  0  0  0  0  0
   13.0731   -0.5585   21.9830 C   0  0  0  0  0  0  0  0  0  0  0  0
   12.6182    1.1569   23.6739 N   0  0  0  0  0  0  0  0  0  0  0  0
   13.4045   -1.8016   21.7096 N   0  0  0  0  0  0  0  0  0  0  0  0
   10.7619    1.1346   22.3535 O   0  0  0  0  0  0  0  0  0  0  0  0
  2  1  1  0
  3  2  1  0
  4  3  1  0
  5  4  1  0
  6  5  1  0
  7  6  1  0
  8  7  1  0
  8  3  1  0
 10  9  2  0
 11 10  1  0
 12 11  2  0
 13  9  1  0
 14  9  1  0
 14  1  1  0
 15 13  2  0
 15 12  1  0
 16  1  2  0
M  END
>  <cid>  (39) 
ALE-HEI-f28a35b5-9

>  <score>  (39) 
-14.3602

$$$$
x2562
     RDKit          3D

 22 24  0  0  0  0  0  0  0  0999 V2000
   14.2899   -2.0335   25.5979 O   0  0  0  0  0  0  0  0  0  0  0  0
   13.4407   -1.7856   24.7484 C   0  0  0  0  0  0  0  0  0  0  0  0
   12.8909   -2.4981   23.5236 C   0  0  0  0  0  0  0  0  0  0  0  0
   12.6920   -0.6914   24.5197 N   0  0  0  0  0  0  0  0  0  0  0  0
   12.3543   -1.1129   23.1315 C   0  0  2  0  0  0  0  0  0  0  0  0
   10.9170   -1.2079   22.9516 O   0  0  0  0  0  0  0  0  0  0  0  0
   10.3461   -0.0199   22.5512 C   0  0  0  0  0  0  0  0  0  0  0  0
   10.7778    1.1624   23.1275 C   0  0  0  0  0  0  0  0  0  0  0  0
   10.2354    2.3627   22.6971 C   0  0  0  0  0  0  0  0  0  0  0  0
    9.2741    2.3845   21.6988 C   0  0  0  0  0  0  0  0  0  0  0  0
    9.3674   -0.0194   21.5676 C   0  0  0  0  0  0  0  0  0  0  0  0
    8.8247    1.1916   21.1434 C   0  0  0  0  0  0  0  0  0  0  0  0
    7.8333    1.2752   20.1387 N   0  0  0  0  0  0  0  0  0  0  0  0
    7.3126    0.2827   19.3851 C   0  0  0  0  0  0  0  0  0  0  0  0
    7.3897   -0.9086   19.6708 O   0  0  0  0  0  0  0  0  0  0  0  0
    6.6028    0.7591   18.1345 C   0  0  0  0  0  0  0  0  0  0  0  0
    5.1558    1.1207   18.3745 C   0  0  0  0  0  0  0  0  0  0  0  0
    4.7036    2.4167   18.1889 C   0  0  0  0  0  0  0  0  0  0  0  0
    3.5544    2.8780   18.6931 N   0  0  0  0  0  0  0  0  0  0  0  0
    2.8493    2.0022   19.4092 C   0  0  0  0  0  0  0  0  0  0  0  0
    3.1792    0.7374   19.6797 N   0  0  0  0  0  0  0  0  0  0  0  0
    4.3381    0.3226   19.1561 C   0  0  0  0  0  0  0  0  0  0  0  0
  2  1  2  0
  3  2  1  0
  4  2  1  0
  5  4  1  0
  5  3  1  0
  5  6  1  1
  7  6  1  0
  8  7  2  0
  9  8  1  0
 10  9  2  0
 11  7  1  0
 12 11  2  0
 12 10  1  0
 13 12  1  0
 14 13  1  0
 15 14  2  0
 16 14  1  0
 17 16  1  0
 18 17  2  0
 19 18  1  0
 20 19  2  0
 21 20  1  0
 22 21  2  0
 22 17  1  0
M  END
>  <cid>  (40) 
BAR-COM-4e090d3a-39

>  <score>  (40) 
-14.411

$$$$
x3305
     RDKit          3D

 26 28  0  0  0  0  0  0  0  0999 V2000
   11.6203    1.0271   23.2993 O   0  0  0  0  0  0  0  0  0  0  0  0
   10.5412    0.6540   22.8583 C   0  0  0  0  0  0  0  0  0  0  0  0
    9.4084    1.3639   23.0430 N   0  0  0  0  0  0  0  0  0  0  0  0
    9.2732    2.7785   22.7658 C   0  0  0  0  0  0  0  0  0  0  0  0
   10.4561    3.6399   23.0725 C   0  0  0  0  0  0  0  0  0  0  0  0
   11.3648    4.2062   22.2293 C   0  0  0  0  0  0  0  0  0  0  0  0
   10.8884    3.8304   24.3455 N   0  0  0  0  0  0  0  0  0  0  0  0
   12.0367    4.4628   24.3192 N   0  0  0  0  0  0  0  0  0  0  0  0
   12.3336    4.6819   23.0234 N   0  0  0  0  0  0  0  0  0  0  0  0
   13.5827    5.3139   22.6173 C   0  0  0  0  0  0  0  0  0  0  0  0
   10.4384   -0.4689   22.0841 N   0  0  0  0  0  0  0  0  0  0  0  0
   11.6232   -1.3086   21.8736 C   0  0  0  0  0  0  0  0  0  0  0  0
   12.1499   -1.9346   23.1446 C   0  0  0  0  0  0  0  0  0  0  0  0
   11.4854   -2.9776   23.7653 C   0  0  0  0  0  0  0  0  0  0  0  0
   11.9084   -3.5727   24.8884 N   0  0  0  0  0  0  0  0  0  0  0  0
   13.0432   -3.1176   25.4348 C   0  0  0  0  0  0  0  0  0  0  0  0
   13.7728   -2.0770   24.9052 C   0  0  0  0  0  0  0  0  0  0  0  0
   13.3166   -1.4846   23.7423 C   0  0  0  0  0  0  0  0  0  0  0  0
    9.2454   -0.8326   21.3012 C   0  0  0  0  0  0  0  0  0  0  0  0
    8.1017   -1.3651   22.1662 C   0  0  0  0  0  0  0  0  0  0  0  0
    6.9378   -1.9131   21.3758 C   0  0  0  0  0  0  0  0  0  0  0  0
    6.4611   -1.2336   20.2622 C   0  0  0  0  0  0  0  0  0  0  0  0
    5.4213   -1.7521   19.5059 C   0  0  0  0  0  0  0  0  0  0  0  0
    4.8326   -2.9480   19.8655 C   0  0  0  0  0  0  0  0  0  0  0  0
    5.2792   -3.6217   20.9856 C   0  0  0  0  0  0  0  0  0  0  0  0
    6.3279   -3.1100   21.7352 C   0  0  0  0  0  0  0  0  0  0  0  0
  2  1  2  0
  3  2  1  0
  4  3  1  0
  5  4  1  0
  6  5  2  0
  7  5  1  0
  8  7  2  0
  9  6  1  0
  9  8  1  0
 10  9  1  0
 11  2  1  0
 12 11  1  0
 13 12  1  0
 14 13  2  0
 15 14  1  0
 16 15  2  0
 17 16  1  0
 18 17  2  0
 18 13  1  0
 19 11  1  0
 20 19  1  0
 21 20  1  0
 22 21  2  0
 23 22  1  0
 24 23  2  0
 25 24  1  0
 26 25  2  0
 26 21  1  0
M  END
>  <cid>  (41) 
BAR-COM-4e090d3a-47

>  <score>  (41) 
-15.6981

$$$$
x2764
     RDKit          3D

 19 20  0  0  0  0  0  0  0  0999 V2000
   14.8676   -2.2965   26.5068 N   0  0  0  0  0  0  0  0  0  0  0  0
   14.0986   -2.3374   25.6635 C   0  0  0  0  0  0  0  0  0  0  0  0
   13.1361   -2.4431   24.5531 C   0  0  0  0  0  0  0  0  0  0  0  0
   12.3191   -1.2765   24.3355 O   0  0  0  0  0  0  0  0  0  0  0  0
   11.3934   -1.3163   23.3210 C   0  0  0  0  0  0  0  0  0  0  0  0
   10.9973   -2.5070   22.7278 C   0  0  0  0  0  0  0  0  0  0  0  0
    9.9120   -2.5078   21.8658 C   0  0  0  0  0  0  0  0  0  0  0  0
    9.2214   -1.3425   21.6126 C   0  0  0  0  0  0  0  0  0  0  0  0
    9.6480   -0.1445   22.1600 C   0  0  0  0  0  0  0  0  0  0  0  0
   10.7748   -0.1043   22.9859 C   0  0  0  0  0  0  0  0  0  0  0  0
   11.3281    1.2628   23.2564 C   0  0  0  0  0  0  0  0  0  0  0  0
   12.5153    1.4078   23.5346 O   0  0  0  0  0  0  0  0  0  0  0  0
   10.4780    2.2926   23.1955 N   0  0  0  0  0  0  0  0  0  0  0  0
   10.8300    3.5890   23.7321 C   0  0  0  0  0  0  0  0  0  0  0  0
   11.8606    4.2868   22.9105 C   0  0  0  0  0  0  0  0  0  0  0  0
   12.8251    5.1352   23.3706 C   0  0  0  0  0  0  0  0  0  0  0  0
   13.8095    5.6391   22.0988 S   0  0  0  0  0  0  0  0  0  0  0  0
   12.9816    4.7568   20.9457 N   0  0  0  0  0  0  0  0  0  0  0  0
   11.9821    4.1039   21.5220 C   0  0  0  0  0  0  0  0  0  0  0  0
  2  1  3  0
  3  2  1  0
  4  3  1  0
  5  4  1  0
  6  5  2  0
  7  6  1  0
  8  7  2  0
  9  8  1  0
 10  9  2  0
 10  5  1  0
 10 11  1  0
 12 11  2  0
 13 11  1  0
 14 13  1  0
 15 14  1  0
 16 15  2  0
 17 16  1  0
 18 17  1  0
 19 15  1  0
 19 18  2  0
M  END
>  <cid>  (42) 
BAR-COM-4e090d3a-49

>  <score>  (42) 
-21.9567

$$$$
x3298
     RDKit          3D

 28 30  0  0  0  0  0  0  0  0999 V2000
    5.5764   -0.2626   17.9505 F   0  0  0  0  0  0  0  0  0  0  0  0
    6.1694   -0.7536   19.0686 C   0  0  0  0  0  0  0  0  0  0  0  0
    7.4505   -0.3555   19.3553 C   0  0  0  0  0  0  0  0  0  0  0  0
    8.0672   -0.8828   20.4760 C   0  0  0  0  0  0  0  0  0  0  0  0
    5.4636   -1.6318   19.8483 C   0  0  0  0  0  0  0  0  0  0  0  0
    6.0806   -2.1570   20.9696 C   0  0  0  0  0  0  0  0  0  0  0  0
    7.3811   -1.7887   21.2707 C   0  0  0  0  0  0  0  0  0  0  0  0
    8.1506   -2.4347   22.7136 S   0  0  0  0  0  0  0  0  0  0  0  0
    8.7128   -3.7094   22.3853 O   0  0  0  0  0  0  0  0  0  0  0  0
    7.2217   -2.3276   23.8002 O   0  0  0  0  0  0  0  0  0  0  0  0
    9.3800   -1.4111   23.0186 N   0  0  0  0  0  0  0  0  0  0  0  0
   10.6798   -1.5848   23.5718 C   0  0  0  0  0  0  0  0  0  0  0  0
   11.2106   -2.8478   23.8451 C   0  0  0  0  0  0  0  0  0  0  0  0
   12.5186   -2.9658   24.2909 C   0  0  0  0  0  0  0  0  0  0  0  0
   13.3020   -1.8415   24.4664 C   0  0  0  0  0  0  0  0  0  0  0  0
   12.8019   -0.5830   24.1677 C   0  0  0  0  0  0  0  0  0  0  0  0
   11.4958   -0.4505   23.6917 C   0  0  0  0  0  0  0  0  0  0  0  0
   11.0102    0.7582   23.1343 N   0  0  0  0  0  0  0  0  0  0  0  0
   11.7648    1.8356   22.7974 C   0  0  0  0  0  0  0  0  0  0  0  0
   12.9485    1.9512   23.1032 O   0  0  0  0  0  0  0  0  0  0  0  0
   11.1208    2.8828   21.8841 C   0  0  1  0  0  0  0  0  0  0  0  0
    9.7058    2.9562   22.0505 O   0  0  0  0  0  0  0  0  0  0  0  0
   11.7475    4.1645   22.4121 C   0  0  0  0  0  0  0  0  0  0  0  0
   11.3964    4.6995   23.6438 C   0  0  0  0  0  0  0  0  0  0  0  0
   11.8085    5.8917   24.0918 N   0  0  0  0  0  0  0  0  0  0  0  0
   12.6282    6.5961   23.2998 C   0  0  0  0  0  0  0  0  0  0  0  0
   13.0631    6.1473   22.0683 C   0  0  0  0  0  0  0  0  0  0  0  0
   12.6148    4.9142   21.6283 C   0  0  0  0  0  0  0  0  0  0  0  0
  2  1  1  0
  3  2  2  0
  4  3  1  0
  5  2  1  0
  6  5  2  0
  7  6  1  0
  7  4  2  0
  8  7  1  0
  8  9  2  0
 10  8  2  0
 11  8  1  0
 12 11  1  0
 13 12  2  0
 14 13  1  0
 15 14  2  0
 16 15  1  0
 17 16  2  0
 17 12  1  0
 17 18  1  0
 19 18  1  0
 19 20  2  0
 21 19  1  0
 21 22  1  1
 23 21  1  0
 23 24  2  0
 25 24  1  0
 26 25  2  0
 27 26  1  0
 28 27  2  0
 28 23  1  0
M  END
>  <cid>  (43) 
BAR-COM-4e090d3a-57

>  <score>  (43) 
-17.6654

$$$$
x10022
     RDKit          3D

 17 18  0  0  0  0  0  0  0  0999 V2000
   13.2049    1.6135   23.1545 O   0  0  0  0  0  0  0  0  0  0  0  0
   11.9959    1.4902   23.0007 C   0  0  0  0  0  0  0  0  0  0  0  0
   11.1381    2.6478   22.6565 C   0  0  0  0  0  0  0  0  0  0  0  0
   11.7968    3.9761   22.5430 C   0  0  0  0  0  0  0  0  0  0  0  0
   11.0628    5.1591   22.5500 C   0  0  0  0  0  0  0  0  0  0  0  0
   11.6087    6.3687   22.4032 N   0  0  0  0  0  0  0  0  0  0  0  0
   12.9360    6.4334   22.2431 C   0  0  0  0  0  0  0  0  0  0  0  0
   13.7531    5.3211   22.2277 C   0  0  0  0  0  0  0  0  0  0  0  0
   13.1719    4.0796   22.3824 C   0  0  0  0  0  0  0  0  0  0  0  0
    9.8283    2.4998   22.5021 C   0  0  0  0  0  0  0  0  0  0  0  0
   11.3651    0.3156   23.1425 N   0  0  0  0  0  0  0  0  0  0  0  0
   11.9510   -0.8712   23.6243 C   0  0  0  0  0  0  0  0  0  0  0  0
   13.1566   -0.8669   24.3074 C   0  0  0  0  0  0  0  0  0  0  0  0
   13.5470   -1.9854   25.0231 C   0  0  0  0  0  0  0  0  0  0  0  0
   12.7547   -3.1139   25.0400 C   0  0  0  0  0  0  0  0  0  0  0  0
   11.5863   -3.1414   24.3196 C   0  0  0  0  0  0  0  0  0  0  0  0
   11.1797   -2.0278   23.6032 C   0  0  0  0  0  0  0  0  0  0  0  0
  2  1  2  0
  3  2  1  0
  4  3  1  0
  5  4  2  0
  6  5  1  0
  7  6  2  0
  8  7  1  0
  9  8  2  0
  9  4  1  0
 10  3  2  0
 11  2  1  0
 12 11  1  0
 13 12  2  0
 14 13  1  0
 15 14  2  0
 16 15  1  0
 17 12  1  0
 17 16  2  0
M  END
>  <cid>  (44) 
BEN-DND-031a96cc-8

>  <score>  (44) 
-17.624

$$$$
x0678
     RDKit          3D

 16 17  0  0  0  0  0  0  0  0999 V2000
   11.4247    1.7390   23.1265 C   0  0  0  0  0  0  0  0  0  0  0  0
   11.0988    3.1437   23.6194 C   0  0  0  0  0  0  0  0  0  0  0  0
   12.2285    4.1273   23.3489 C   0  0  0  0  0  0  0  0  0  0  0  0
   11.9782    5.4582   24.0559 C   0  0  0  0  0  0  0  0  0  0  0  0
   12.3686    6.6711   23.2149 C   0  0  0  0  0  0  0  0  0  0  0  0
   13.5610    6.4468   22.2953 C   0  0  0  0  0  0  0  0  0  0  0  0
   13.5201    5.1384   21.5128 C   0  0  0  0  0  0  0  0  0  0  0  0
   12.3084    4.2775   21.8393 C   0  0  0  0  0  0  0  0  0  0  0  0
   12.9749   -0.1758   23.2846 C   0  0  0  0  0  0  0  0  0  0  0  0
   13.1839   -1.0749   24.3261 C   0  0  0  0  0  0  0  0  0  0  0  0
   13.5260   -2.3753   23.9716 C   0  0  0  0  0  0  0  0  0  0  0  0
   13.6272   -2.6907   22.6246 C   0  0  0  0  0  0  0  0  0  0  0  0
   13.0757   -0.5474   21.9577 C   0  0  0  0  0  0  0  0  0  0  0  0
   12.6162    1.1592   23.6563 N   0  0  0  0  0  0  0  0  0  0  0  0
   13.4023   -1.7906   21.6787 N   0  0  0  0  0  0  0  0  0  0  0  0
   10.7458    1.1396   22.3558 O   0  0  0  0  0  0  0  0  0  0  0  0
  2  1  1  0
  3  2  1  0
  4  3  1  0
  5  4  1  0
  6  5  1  0
  7  6  1  0
  8  7  1  0
  8  3  1  0
 10  9  2  0
 11 10  1  0
 12 11  2  0
 13  9  1  0
 14  9  1  0
 14  1  1  0
 15 13  2  0
 15 12  1  0
 16  1  2  0
M  END
>  <cid>  (45) 
FRA-FAC-9ed5a63a-1

>  <score>  (45) 
-14.3662

$$$$
x2659
     RDKit          3D

 19 21  0  0  0  0  0  0  0  0999 V2000
    8.6545   -3.5843   23.5893 Cl  0  0  0  0  0  0  0  0  0  0  0  0
   10.0080   -2.4964   23.5224 C   0  0  0  0  0  0  0  0  0  0  0  0
   11.2720   -2.9877   23.7884 C   0  0  0  0  0  0  0  0  0  0  0  0
   12.3583   -2.1302   23.7668 C   0  0  0  0  0  0  0  0  0  0  0  0
    9.7810   -1.1670   23.2230 C   0  0  0  0  0  0  0  0  0  0  0  0
   10.8615   -0.2894   23.2061 C   0  0  0  0  0  0  0  0  0  0  0  0
   11.0071    1.1359   23.0243 C   0  0  0  0  0  0  0  0  0  0  0  0
   10.1315    2.1812   22.7521 C   0  0  0  0  0  0  0  0  0  0  0  0
   10.6179    3.4750   22.7174 C   0  0  0  0  0  0  0  0  0  0  0  0
   12.1474   -0.7894   23.4863 C   0  0  0  0  0  0  0  0  0  0  0  0
   13.0488    0.2542   23.4869 N   0  0  0  0  0  0  0  0  0  0  0  0
   12.3719    1.4266   23.2258 C   0  0  0  0  0  0  0  0  0  0  0  0
   12.8596    2.7215   23.2020 C   0  0  0  0  0  0  0  0  0  0  0  0
   11.9630    3.7592   22.9621 C   0  0  0  0  0  0  0  0  0  0  0  0
   12.4663    5.1922   23.0246 C   0  0  1  0  0  0  0  0  0  0  0  0
   12.3790    5.8802   21.6770 C   0  0  0  0  0  0  0  0  0  0  0  0
   11.7199    5.8981   24.1373 C   0  0  0  0  0  0  0  0  0  0  0  0
   10.6253    6.3665   23.9354 O   0  0  0  0  0  0  0  0  0  0  0  0
   12.3588    5.9988   25.2822 O   0  0  0  0  0  0  0  0  0  0  0  0
  2  1  1  0
  3  2  2  0
  4  3  1  0
  5  2  1  0
  6  5  2  0
  7  6  1  0
  8  7  2  0
  9  8  1  0
 10  4  2  0
 10  6  1  0
 11 10  1  0
 12 11  1  0
 12  7  1  0
 13 12  2  0
 14 13  1  0
 14  9  2  0
 15 14  1  0
 15 16  1  6
 17 15  1  0
 18 17  2  0
 19 17  1  0
M  END
>  <cid>  (46) 
MAK-UNK-0d6072ac-4

>  <score>  (46) 
-14.905

$$$$
x10329
     RDKit          3D

 20 21  0  0  0  0  0  0  0  0999 V2000
   13.6998   -2.4359   25.6201 Cl  0  0  0  0  0  0  0  0  0  0  0  0
   12.9742   -2.3961   24.0419 C   0  0  0  0  0  0  0  0  0  0  0  0
   13.7491   -2.6698   22.9367 C   0  0  0  0  0  0  0  0  0  0  0  0
   13.1880   -2.5191   21.6775 C   0  0  0  0  0  0  0  0  0  0  0  0
   11.8613   -2.1393   21.5455 C   0  0  0  0  0  0  0  0  0  0  0  0
   11.6477   -2.0317   23.9272 C   0  0  0  0  0  0  0  0  0  0  0  0
   11.0702   -1.9245   22.6662 C   0  0  0  0  0  0  0  0  0  0  0  0
    9.5702   -1.7279   22.5426 C   0  0  2  0  0  0  0  0  0  0  0  0
    9.0894   -0.4286   23.2067 C   0  0  0  0  0  0  0  0  0  0  0  0
    9.6003    0.8102   22.5034 C   0  0  0  0  0  0  0  0  0  0  0  0
    8.8689   -2.9911   23.0536 C   0  0  0  0  0  0  0  0  0  0  0  0
    9.3917   -3.7280   23.8841 O   0  0  0  0  0  0  0  0  0  0  0  0
    7.6350   -3.2242   22.5520 N   0  0  0  0  0  0  0  0  0  0  0  0
    6.8954   -4.3496   22.1431 C   0  0  0  0  0  0  0  0  0  0  0  0
    5.7989   -4.2630   21.2574 C   0  0  0  0  0  0  0  0  0  0  0  0
    4.9699   -3.0105   21.1252 C   0  0  0  0  0  0  0  0  0  0  0  0
    5.4352   -5.4230   20.5812 C   0  0  0  0  0  0  0  0  0  0  0  0
    6.0770   -6.5872   20.7398 N   0  0  0  0  0  0  0  0  0  0  0  0
    7.1294   -6.6655   21.6068 N   0  0  0  0  0  0  0  0  0  0  0  0
    7.4919   -5.5986   22.2852 C   0  0  0  0  0  0  0  0  0  0  0  0
  2  1  1  0
  3  2  2  0
  4  3  1  0
  5  4  2  0
  6  2  1  0
  7  6  2  0
  7  5  1  0
  8  7  1  0
  8  9  1  1
 10  9  1  0
 11  8  1  0
 12 11  2  0
 13 11  1  0
 14 13  1  0
 15 14  2  0
 15 16  1  0
 17 15  1  0
 18 17  2  0
 19 18  1  0
 20 19  2  0
 20 14  1  0
M  END
>  <cid>  (47) 
JAN-GHE-83b26c96-1

>  <score>  (47) 
-17.4587

$$$$
x11372
     RDKit          3D

 22 23  0  0  0  0  0  0  0  0999 V2000
   14.1782   -2.7253   26.0826 Cl  0  0  0  0  0  0  0  0  0  0  0  0
   13.4637   -2.2470   24.5664 C   0  0  0  0  0  0  0  0  0  0  0  0
   13.7998   -2.9322   23.4179 C   0  0  0  0  0  0  0  0  0  0  0  0
   13.2822   -2.4963   22.2088 C   0  0  0  0  0  0  0  0  0  0  0  0
   12.4316   -1.4025   22.1664 C   0  0  0  0  0  0  0  0  0  0  0  0
   12.6041   -1.1652   24.5434 C   0  0  0  0  0  0  0  0  0  0  0  0
   12.0713   -0.7379   23.3312 C   0  0  0  0  0  0  0  0  0  0  0  0
   11.0991    0.4355   23.2929 C   0  0  2  0  0  0  0  0  0  0  0  0
    9.7489   -0.0002   22.6872 C   0  0  0  0  0  0  0  0  0  0  0  0
   11.8540    1.7046   22.8632 C   0  0  0  0  0  0  0  0  0  0  0  0
   13.0345    1.6633   22.5365 O   0  0  0  0  0  0  0  0  0  0  0  0
   11.1627    2.8748   22.9562 N   0  0  0  0  0  0  0  0  0  0  0  0
   11.7372    4.1578   22.8231 C   0  0  0  0  0  0  0  0  0  0  0  0
   11.5750    5.1004   23.8490 C   0  0  0  0  0  0  0  0  0  0  0  0
   10.7590    4.7696   24.9560 N   0  0  0  0  0  0  0  0  0  0  0  0
   10.6454    5.3897   26.1572 C   0  0  0  0  0  0  0  0  0  0  0  0
    9.6585    4.7645   27.0976 C   0  0  0  0  0  0  0  0  0  0  0  0
   11.2852    6.3971   26.4594 O   0  0  0  0  0  0  0  0  0  0  0  0
   12.2459    6.3173   23.7601 C   0  0  0  0  0  0  0  0  0  0  0  0
   13.0475    6.5323   22.6575 C   0  0  0  0  0  0  0  0  0  0  0  0
   13.2162    5.6478   21.6657 N   0  0  0  0  0  0  0  0  0  0  0  0
   12.5600    4.4882   21.7518 C   0  0  0  0  0  0  0  0  0  0  0  0
  2  1  1  0
  3  2  2  0
  4  3  1  0
  5  4  2  0
  6  2  1  0
  7  6  2  0
  7  5  1  0
  8  7  1  0
  8  9  1  6
 10  8  1  0
 10 11  2  0
 12 10  1  0
 13 12  1  0
 14 13  2  0
 15 14  1  0
 16 15  1  0
 17 16  1  0
 18 16  2  0
 19 14  1  0
 20 19  2  0
 21 20  1  0
 22 21  2  0
 22 13  1  0
M  END
>  <cid>  (48) 
JAN-GHE-83b26c96-2

>  <score>  (48) 
-17.5026

$$$$
x10377
     RDKit          3D

 23 25  0  0  0  0  0  0  0  0999 V2000
   14.0411   -2.4438   25.8567 Cl  0  0  0  0  0  0  0  0  0  0  0  0
   13.4798   -2.1054   24.2458 C   0  0  0  0  0  0  0  0  0  0  0  0
   13.7891   -2.9807   23.2241 C   0  0  0  0  0  0  0  0  0  0  0  0
   13.3549   -2.6845   21.9429 C   0  0  0  0  0  0  0  0  0  0  0  0
   12.6050   -1.5428   21.7034 C   0  0  0  0  0  0  0  0  0  0  0  0
   12.7328   -0.9660   24.0243 C   0  0  0  0  0  0  0  0  0  0  0  0
   12.2641   -0.6875   22.7454 C   0  0  0  0  0  0  0  0  0  0  0  0
   11.3033    0.4739   22.5171 C   0  0  1  0  0  0  0  0  0  0  0  0
   10.0329    0.3296   23.3625 C   0  0  0  0  0  0  0  0  0  0  0  0
   12.0801    1.7712   22.7663 C   0  0  0  0  0  0  0  0  0  0  0  0
   13.2249    1.7616   23.2158 O   0  0  0  0  0  0  0  0  0  0  0  0
   11.4281    2.9139   22.4224 N   0  0  0  0  0  0  0  0  0  0  0  0
   11.9568    4.2259   22.4579 C   0  0  0  0  0  0  0  0  0  0  0  0
   11.1212    5.3553   22.4851 C   0  0  0  0  0  0  0  0  0  0  0  0
   11.6914    6.6206   22.4880 C   0  0  0  0  0  0  0  0  0  0  0  0
   13.0719    6.7033   22.4758 C   0  0  0  0  0  0  0  0  0  0  0  0
   13.8892    5.6446   22.4620 N   0  0  0  0  0  0  0  0  0  0  0  0
   13.3328    4.4305   22.4524 C   0  0  0  0  0  0  0  0  0  0  0  0
    9.6952    5.2530   22.5355 N   0  0  0  0  0  0  0  0  0  0  0  0
    8.9285    6.3794   22.5243 N   0  0  0  0  0  0  0  0  0  0  0  0
    7.6922    5.9288   22.6921 C   0  0  0  0  0  0  0  0  0  0  0  0
    7.6439    4.5406   22.8031 C   0  0  0  0  0  0  0  0  0  0  0  0
    8.9430    4.1330   22.6933 C   0  0  0  0  0  0  0  0  0  0  0  0
  2  1  1  0
  3  2  2  0
  4  3  1  0
  5  4  2  0
  6  2  1  0
  7  5  1  0
  7  6  2  0
  8  7  1  0
  8  9  1  1
 10  8  1  0
 11 10  2  0
 12 10  1  0
 13 12  1  0
 14 13  1  0
 15 14  2  0
 16 15  1  0
 17 16  2  0
 18 17  1  0
 18 13  2  0
 19 14  1  0
 20 19  1  0
 21 20  2  0
 22 21  1  0
 23 19  1  0
 23 22  2  0
M  END
>  <cid>  (49) 
JAN-GHE-83b26c96-3

>  <score>  (49) 
-19.4956

$$$$
x10423
     RDKit          3D

 21 22  0  0  0  0  0  0  0  0999 V2000
   12.5376    2.3044   23.3676 Cl  0  0  0  0  0  0  0  0  0  0  0  0
   12.3221    0.7120   22.6975 C   0  0  0  0  0  0  0  0  0  0  0  0
   13.4284   -0.0852   22.4862 C   0  0  0  0  0  0  0  0  0  0  0  0
   13.2427   -1.3470   21.9441 C   0  0  0  0  0  0  0  0  0  0  0  0
   11.9669   -1.7999   21.6436 C   0  0  0  0  0  0  0  0  0  0  0  0
   11.0440    0.2752   22.4073 C   0  0  0  0  0  0  0  0  0  0  0  0
   10.8537   -1.0048   21.8965 C   0  0  0  0  0  0  0  0  0  0  0  0
    9.4430   -1.5555   21.7477 C   0  0  1  0  0  0  0  0  0  0  0  0
    8.7691   -1.7402   23.1163 C   0  0  0  0  0  0  0  0  0  0  0  0
    7.4300   -2.4386   23.0513 C   0  0  0  0  0  0  0  0  0  0  0  0
    6.8264   -2.6091   24.4077 C   0  0  0  0  0  0  0  0  0  0  0  0
    8.6210   -0.5865   20.8979 C   0  0  0  0  0  0  0  0  0  0  0  0
    8.6133    0.6196   21.1119 O   0  0  0  0  0  0  0  0  0  0  0  0
    7.8650   -1.1712   19.9417 N   0  0  0  0  0  0  0  0  0  0  0  0
    6.9764   -0.4672   19.0942 C   0  0  0  0  0  0  0  0  0  0  0  0
    5.6902   -0.9767   18.8470 C   0  0  0  0  0  0  0  0  0  0  0  0
    5.1930   -2.2448   19.4950 C   0  0  0  0  0  0  0  0  0  0  0  0
    4.8498   -0.2218   18.0368 C   0  0  0  0  0  0  0  0  0  0  0  0
    5.2879    0.9870   17.5370 C   0  0  0  0  0  0  0  0  0  0  0  0
    6.5055    1.4860   17.7736 N   0  0  0  0  0  0  0  0  0  0  0  0
    7.3272    0.7622   18.5393 C   0  0  0  0  0  0  0  0  0  0  0  0
  2  1  1  0
  3  2  2  0
  4  3  1  0
  5  4  2  0
  6  2  1  0
  7  5  1  0
  7  6  2  0
  8  7  1  0
  8  9  1  1
 10  9  1  0
 11 10  1  0
 12  8  1  0
 13 12  2  0
 14 12  1  0
 15 14  1  0
 16 15  2  0
 16 17  1  0
 18 16  1  0
 19 18  2  0
 20 19  1  0
 21 20  2  0
 21 15  1  0
M  END
>  <cid>  (50) 
JAN-GHE-83b26c96-8

>  <score>  (50) 
-17.3775

$$$$
x10327
     RDKit          3D

 21 22  0  0  0  0  0  0  0  0999 V2000
   13.9892   -2.3159   25.8217 Cl  0  0  0  0  0  0  0  0  0  0  0  0
   13.3971   -1.9907   24.2228 C   0  0  0  0  0  0  0  0  0  0  0  0
   13.7661   -2.8195   23.1836 C   0  0  0  0  0  0  0  0  0  0  0  0
   13.2958   -2.5381   21.9111 C   0  0  0  0  0  0  0  0  0  0  0  0
   12.4773   -1.4385   21.6967 C   0  0  0  0  0  0  0  0  0  0  0  0
   12.5848   -0.8935   24.0256 C   0  0  0  0  0  0  0  0  0  0  0  0
   12.1148   -0.6054   22.7502 C   0  0  0  0  0  0  0  0  0  0  0  0
   11.1823    0.5803   22.5492 C   0  0  1  0  0  0  0  0  0  0  0  0
    9.8641    0.5125   23.3945 C   0  0  0  0  0  0  0  0  0  0  0  0
    8.8649    1.5901   23.0157 C   0  0  0  0  0  0  0  0  0  0  0  0
    9.2059   -0.8617   23.3423 C   0  0  0  0  0  0  0  0  0  0  0  0
   11.9724    1.8778   22.7240 C   0  0  0  0  0  0  0  0  0  0  0  0
   13.1411    1.8763   23.0939 O   0  0  0  0  0  0  0  0  0  0  0  0
   11.3234    2.9993   22.3449 N   0  0  0  0  0  0  0  0  0  0  0  0
   11.9142    4.2863   22.3230 C   0  0  0  0  0  0  0  0  0  0  0  0
   11.1602    5.4153   22.7112 C   0  0  0  0  0  0  0  0  0  0  0  0
    9.7010    5.3180   23.0761 C   0  0  0  0  0  0  0  0  0  0  0  0
   11.8214    6.6390   22.7545 C   0  0  0  0  0  0  0  0  0  0  0  0
   13.1591    6.7044   22.4212 C   0  0  0  0  0  0  0  0  0  0  0  0
   13.8806    5.6459   22.0435 N   0  0  0  0  0  0  0  0  0  0  0  0
   13.2591    4.4612   21.9941 C   0  0  0  0  0  0  0  0  0  0  0  0
  2  1  1  0
  3  2  2  0
  4  3  1  0
  5  4  2  0
  6  2  1  0
  7  6  2  0
  7  5  1  0
  8  7  1  0
  8  9  1  1
  9 10  1  0
 11  9  1  0
 12  8  1  0
 12 13  2  0
 14 12  1  0
 15 14  1  0
 16 15  2  0
 17 16  1  0
 18 16  1  0
 19 18  2  0
 20 19  1  0
 21 20  2  0
 21 15  1  0
M  END
>  <cid>  (51) 
JAN-GHE-83b26c96-9

>  <score>  (51) 
-20.1291

$$$$
x10395
     RDKit          3D

 21 22  0  0  0  0  0  0  0  0999 V2000
   13.9125   -2.2443   25.7301 Cl  0  0  0  0  0  0  0  0  0  0  0  0
   13.2683   -2.0397   24.1235 C   0  0  0  0  0  0  0  0  0  0  0  0
   13.7289   -2.8495   23.1059 C   0  0  0  0  0  0  0  0  0  0  0  0
   13.2815   -2.6160   21.8156 C   0  0  0  0  0  0  0  0  0  0  0  0
   12.3708   -1.6013   21.5642 C   0  0  0  0  0  0  0  0  0  0  0  0
   12.3416   -1.0383   23.8922 C   0  0  0  0  0  0  0  0  0  0  0  0
   11.8709   -0.8215   22.5995 C   0  0  0  0  0  0  0  0  0  0  0  0
   10.7009    0.1223   22.3447 C   0  0  2  0  0  0  0  0  0  0  0  0
   10.7686    1.4103   23.0870 N   0  0  0  0  0  0  0  0  0  0  0  0
   12.0327    2.1369   22.9445 C   0  0  0  0  0  0  0  0  0  0  0  0
    9.6654    2.2951   22.7169 C   0  0  0  0  0  0  0  0  0  0  0  0
    9.3433   -0.6031   22.3819 C   0  0  0  0  0  0  0  0  0  0  0  0
    9.0313   -1.2765   23.3563 O   0  0  0  0  0  0  0  0  0  0  0  0
    8.5587   -0.4783   21.2842 N   0  0  0  0  0  0  0  0  0  0  0  0
    7.3817   -1.2237   21.0394 C   0  0  0  0  0  0  0  0  0  0  0  0
    6.6589   -1.0202   19.8452 C   0  0  0  0  0  0  0  0  0  0  0  0
    7.0288    0.0608   18.8622 C   0  0  0  0  0  0  0  0  0  0  0  0
    5.5867   -1.8699   19.5943 C   0  0  0  0  0  0  0  0  0  0  0  0
    5.2750   -2.8640   20.5001 C   0  0  0  0  0  0  0  0  0  0  0  0
    5.9488   -3.0616   21.6413 N   0  0  0  0  0  0  0  0  0  0  0  0
    6.9700   -2.2404   21.8996 C   0  0  0  0  0  0  0  0  0  0  0  0
  2  1  1  0
  3  2  2  0
  4  3  1  0
  5  4  2  0
  6  2  1  0
  7  6  2  0
  7  5  1  0
  8  7  1  0
  8  9  1  1
 10  9  1  0
 11  9  1  0
  8 12  1  0
 13 12  2  0
 14 12  1  0
 15 14  1  0
 16 15  2  0
 17 16  1  0
 18 16  1  0
 19 18  2  0
 20 19  1  0
 21 20  2  0
 21 15  1  0
M  END
>  <cid>  (52) 
JAN-GHE-83b26c96-10

>  <score>  (52) 
-18.5213

$$$$
x10248
     RDKit          3D

 18 19  0  0  0  0  0  0  0  0999 V2000
   10.3023    0.4942   23.5158 O   0  0  0  0  0  0  0  0  0  0  0  0
   11.2015    1.0929   22.9051 C   0  0  0  0  0  0  0  0  0  0  0  0
   11.0321    2.4957   22.3564 C   0  0  0  0  0  0  0  0  0  0  0  0
   11.3877    3.4413   23.4665 C   0  0  0  0  0  0  0  0  0  0  0  0
   12.5680    4.1621   23.4104 C   0  0  0  0  0  0  0  0  0  0  0  0
   12.7561    5.2716   24.2085 C   0  0  0  0  0  0  0  0  0  0  0  0
   10.4407    3.8093   24.4083 C   0  0  0  0  0  0  0  0  0  0  0  0
   10.6380    4.9115   25.2143 C   0  0  0  0  0  0  0  0  0  0  0  0
   11.7851    5.6780   25.1064 C   0  0  0  0  0  0  0  0  0  0  0  0
   11.9446    6.9441   25.8947 C   0  0  0  0  0  0  0  0  0  0  0  0
   12.4214    0.5963   22.6930 N   0  0  0  0  0  0  0  0  0  0  0  0
   12.9014   -0.5944   23.2555 C   0  0  0  0  0  0  0  0  0  0  0  0
   13.2451   -1.6688   22.4259 C   0  0  0  0  0  0  0  0  0  0  0  0
   13.2927   -1.5376   20.9249 C   0  0  0  0  0  0  0  0  0  0  0  0
   13.6152   -2.8529   23.0423 C   0  0  0  0  0  0  0  0  0  0  0  0
   13.6837   -2.9100   24.4172 C   0  0  0  0  0  0  0  0  0  0  0  0
   13.4045   -1.8725   25.2134 N   0  0  0  0  0  0  0  0  0  0  0  0
   13.0113   -0.7372   24.6311 C   0  0  0  0  0  0  0  0  0  0  0  0
  2  1  2  0
  3  2  1  0
  4  3  1  0
  5  4  2  0
  6  5  1  0
  7  4  1  0
  8  7  2  0
  9  8  1  0
  9  6  2  0
  9 10  1  0
 11  2  1  0
 12 11  1  0
 13 12  2  0
 13 14  1  0
 15 13  1  0
 16 15  2  0
 17 16  1  0
 18 17  2  0
 18 12  1  0
M  END
>  <cid>  (53) 
JAN-GHE-83b26c96-11

>  <score>  (53) 
-15.0961

$$$$
x11368
     RDKit          3D

 18 19  0  0  0  0  0  0  0  0999 V2000
   13.7858   -2.5072   25.6130 Br  0  0  0  0  0  0  0  0  0  0  0  0
   12.8879   -2.4389   23.9428 C   0  0  0  0  0  0  0  0  0  0  0  0
   13.6271   -2.4890   22.7771 C   0  0  0  0  0  0  0  0  0  0  0  0
   12.9568   -2.3698   21.5695 C   0  0  0  0  0  0  0  0  0  0  0  0
   11.5765   -2.2503   21.5477 C   0  0  0  0  0  0  0  0  0  0  0  0
   11.5176   -2.3045   23.9388 C   0  0  0  0  0  0  0  0  0  0  0  0
   10.8438   -2.2397   22.7260 C   0  0  0  0  0  0  0  0  0  0  0  0
    9.3356   -2.2622   22.7067 C   0  0  0  0  0  0  0  0  0  0  0  0
    8.7836   -1.2482   21.7261 C   0  0  0  0  0  0  0  0  0  0  0  0
    9.1473   -0.0742   21.7297 O   0  0  0  0  0  0  0  0  0  0  0  0
    7.8268   -1.7290   20.9124 N   0  0  0  0  0  0  0  0  0  0  0  0
    7.1074   -0.9471   19.9826 C   0  0  0  0  0  0  0  0  0  0  0  0
    5.8079   -1.3242   19.6137 C   0  0  0  0  0  0  0  0  0  0  0  0
    5.1375   -2.5505   20.1817 C   0  0  0  0  0  0  0  0  0  0  0  0
    7.6370    0.2330   19.4675 C   0  0  0  0  0  0  0  0  0  0  0  0
    6.9664    1.0383   18.6389 N   0  0  0  0  0  0  0  0  0  0  0  0
    5.7276    0.6701   18.2943 C   0  0  0  0  0  0  0  0  0  0  0  0
    5.1229   -0.4857   18.7436 C   0  0  0  0  0  0  0  0  0  0  0  0
  2  1  1  0
  3  2  2  0
  4  3  1  0
  5  4  2  0
  6  2  1  0
  7  5  1  0
  7  6  2  0
  7  8  1  0
  9  8  1  0
  9 10  2  0
 11  9  1  0
 12 11  1  0
 13 12  2  0
 13 14  1  0
 15 12  1  0
 16 15  2  0
 17 16  1  0
 18 17  2  0
 18 13  1  0
M  END
>  <cid>  (54) 
JAN-GHE-83b26c96-12

>  <score>  (54) 
-17.5353

$$$$
x10565
     RDKit          3D

 18 19  0  0  0  0  0  0  0  0999 V2000
   11.5170   -1.9683   21.7183 C   0  0  0  0  0  0  0  0  0  0  0  0
    7.0439   -6.6958   22.3182 N   0  0  0  0  0  0  0  0  0  0  0  0
   12.9624   -2.2618   24.0368 C   0  0  0  0  0  0  0  0  0  0  0  0
    5.8333   -4.3357   21.3915 C   0  0  0  0  0  0  0  0  0  0  0  0
   13.5770   -2.5231   22.8253 C   0  0  0  0  0  0  0  0  0  0  0  0
    5.2040   -3.0871   20.8281 C   0  0  0  0  0  0  0  0  0  0  0  0
   10.8913   -1.7577   22.9399 C   0  0  0  0  0  0  0  0  0  0  0  0
    5.2674   -5.5840   21.1594 C   0  0  0  0  0  0  0  0  0  0  0  0
    8.7245   -2.9014   23.1588 C   0  0  0  0  0  0  0  0  0  0  0  0
    7.6609   -3.0625   22.3543 N   0  0  0  0  0  0  0  0  0  0  0  0
    9.1586   -3.7829   23.9018 O   0  0  0  0  0  0  0  0  0  0  0  0
    7.0300   -4.2998   22.1247 C   0  0  0  0  0  0  0  0  0  0  0  0
    9.4002   -1.5517   23.0284 C   0  0  0  0  0  0  0  0  0  0  0  0
    7.5885   -5.5008   22.5657 C   0  0  0  0  0  0  0  0  0  0  0  0
   12.8464   -2.3581   21.6590 C   0  0  0  0  0  0  0  0  0  0  0  0
   11.6379   -1.8885   24.1018 C   0  0  0  0  0  0  0  0  0  0  0  0
    5.9001   -6.7186   21.6243 C   0  0  0  0  0  0  0  0  0  0  0  0
   14.0776   -2.3074   25.8019 I   0  0  0  0  0  0  0  0  0  0  0  0
  5  3  1  0
  6  4  1  0
  7  1  2  0
  8  4  1  0
 10  9  1  0
 11  9  2  0
 12  4  2  0
 12 10  1  0
 13  9  1  0
  7 13  1  0
 14 12  1  0
 14  2  2  0
 15  1  1  0
 15  5  2  0
 16  7  1  0
 16  3  2  0
 17  8  2  0
 17  2  1  0
  3 18  1  0
M  END
>  <cid>  (55) 
JAN-GHE-83b26c96-13

>  <score>  (55) 
-18.4696

$$$$
x10247
     RDKit          3D

 21 22  0  0  0  0  0  0  0  0999 V2000
   12.4832    7.0622   25.7984 F   0  0  0  0  0  0  0  0  0  0  0  0
   11.5838    6.1665   25.4764 C   0  0  0  0  0  0  0  0  0  0  0  0
   11.5223    5.3462   26.5349 F   0  0  0  0  0  0  0  0  0  0  0  0
   10.4178    6.8184   25.3848 F   0  0  0  0  0  0  0  0  0  0  0  0
   11.9378    5.4605   24.2110 C   0  0  0  0  0  0  0  0  0  0  0  0
   12.6657    6.1094   23.2181 C   0  0  0  0  0  0  0  0  0  0  0  0
   12.8831    5.4991   21.9975 C   0  0  0  0  0  0  0  0  0  0  0  0
   12.3739    4.2331   21.7611 C   0  0  0  0  0  0  0  0  0  0  0  0
   11.4492    4.1836   23.9705 C   0  0  0  0  0  0  0  0  0  0  0  0
   11.6530    3.5639   22.7436 C   0  0  0  0  0  0  0  0  0  0  0  0
   11.0815    2.1942   22.4865 C   0  0  0  0  0  0  0  0  0  0  0  0
   12.0190    1.1353   23.0269 C   0  0  0  0  0  0  0  0  0  0  0  0
   13.2329    1.3118   23.0877 O   0  0  0  0  0  0  0  0  0  0  0  0
   11.4038    0.0066   23.4274 N   0  0  0  0  0  0  0  0  0  0  0  0
   12.0284   -1.0668   24.0838 C   0  0  0  0  0  0  0  0  0  0  0  0
   11.3902   -2.3180   24.1401 C   0  0  0  0  0  0  0  0  0  0  0  0
   10.0795   -2.5781   23.4432 C   0  0  0  0  0  0  0  0  0  0  0  0
   13.2955   -0.9221   24.6375 C   0  0  0  0  0  0  0  0  0  0  0  0
   13.9492   -1.9297   25.2268 N   0  0  0  0  0  0  0  0  0  0  0  0
   13.3318   -3.1195   25.2831 C   0  0  0  0  0  0  0  0  0  0  0  0
   12.0700   -3.3490   24.7767 C   0  0  0  0  0  0  0  0  0  0  0  0
  2  1  1  0
  3  2  1  0
  4  2  1  0
  5  2  1  0
  5  6  2  0
  7  6  1  0
  8  7  2  0
  9  5  1  0
 10  8  1  0
 10  9  2  0
 11 10  1  0
 12 11  1  0
 13 12  2  0
 14 12  1  0
 15 14  1  0
 16 15  2  0
 16 17  1  0
 18 15  1  0
 19 18  2  0
 20 19  1  0
 21 20  2  0
 21 16  1  0
M  END
>  <cid>  (56) 
JAN-GHE-83b26c96-14

>  <score>  (56) 
-16.1625

$$$$
x11041
     RDKit          3D

 19 20  0  0  0  0  0  0  0  0999 V2000
   11.2798    2.9589   22.7005 N   0  0  0  0  0  0  0  0  0  0  0  0
   13.1153    6.6507   22.4985 C   0  0  0  0  0  0  0  0  0  0  0  0
   11.9501    1.7981   22.9172 C   0  0  0  0  0  0  0  0  0  0  0  0
   12.6177   -0.9986   24.2972 C   0  0  0  0  0  0  0  0  0  0  0  0
   11.1741    0.4945   22.8818 C   0  0  0  0  0  0  0  0  0  0  0  0
   13.7775   -2.9011   23.3726 C   0  0  0  0  0  0  0  0  0  0  0  0
   13.2564   -2.5968   22.1247 C   0  0  0  0  0  0  0  0  0  0  0  0
   12.4247   -1.4990   21.9639 C   0  0  0  0  0  0  0  0  0  0  0  0
   12.8073    4.5313   21.7065 C   0  0  0  0  0  0  0  0  0  0  0  0
   11.6125    5.2167   23.6879 C   0  0  0  0  0  0  0  0  0  0  0  0
   11.9080    4.2443   22.7314 C   0  0  0  0  0  0  0  0  0  0  0  0
   12.2353    6.4510   23.5419 C   0  0  0  0  0  0  0  0  0  0  0  0
   10.6925    4.9548   24.8537 C   0  0  0  0  0  0  0  0  0  0  0  0
    9.8594    2.9288   22.3477 C   0  0  0  0  0  0  0  0  0  0  0  0
   13.4118    5.7169   21.5867 N   0  0  0  0  0  0  0  0  0  0  0  0
   13.1572    1.7827   23.1295 O   0  0  0  0  0  0  0  0  0  0  0  0
   13.4557   -2.0837   24.4382 C   0  0  0  0  0  0  0  0  0  0  0  0
   12.0991   -0.6890   23.0448 C   0  0  0  0  0  0  0  0  0  0  0  0
   14.2242   -2.3509   25.9740 Cl  0  0  0  0  0  0  0  0  0  0  0  0
  3  1  1  0
  5  3  1  0
  7  6  2  0
  8  7  1  0
 11 10  2  0
 11  9  1  0
 11  1  1  0
 12 10  1  0
 12  2  2  0
 13 10  1  0
 14  1  1  0
 15  2  1  0
 15  9  2  0
 16  3  2  0
 17  6  1  0
 17  4  2  0
 18  5  1  0
 18  8  2  0
 18  4  1  0
 17 19  1  0
M  END
>  <cid>  (57) 
JAN-GHE-83b26c96-15

>  <score>  (57) 
-17.4971

$$$$
x10996
     RDKit          3D

 17 18  0  0  0  0  0  0  0  0999 V2000
   12.9988    6.6139   21.9292 C   0  0  0  0  0  0  0  0  0  0  0  0
   11.0955    0.6971   23.2229 N   0  0  0  0  0  0  0  0  0  0  0  0
   11.6812    6.5450   22.1651 N   0  0  0  0  0  0  0  0  0  0  0  0
   12.0661   -3.1206   24.5665 C   0  0  0  0  0  0  0  0  0  0  0  0
   12.6417   -0.7922   24.2874 C   0  0  0  0  0  0  0  0  0  0  0  0
   12.8803   -2.0384   24.8303 C   0  0  0  0  0  0  0  0  0  0  0  0
   13.8418    5.5211   21.9950 C   0  0  0  0  0  0  0  0  0  0  0  0
   11.0079   -2.9590   23.6827 C   0  0  0  0  0  0  0  0  0  0  0  0
   11.3024    2.9209   22.7058 N   0  0  0  0  0  0  0  0  0  0  0  0
   11.9319    4.1802   22.5379 C   0  0  0  0  0  0  0  0  0  0  0  0
   13.1336    1.7157   23.3357 O   0  0  0  0  0  0  0  0  0  0  0  0
   11.9319    1.7723   23.1032 C   0  0  0  0  0  0  0  0  0  0  0  0
   13.2989    4.2862   22.3114 C   0  0  0  0  0  0  0  0  0  0  0  0
   11.5338   -0.6244   23.4624 C   0  0  0  0  0  0  0  0  0  0  0  0
   11.1707    5.3462   22.4673 C   0  0  0  0  0  0  0  0  0  0  0  0
   10.7457   -1.7175   23.1220 C   0  0  0  0  0  0  0  0  0  0  0  0
   14.2592   -2.2482   25.8701 Cl  0  0  0  0  0  0  0  0  0  0  0  0
  3  1  2  0
  6  5  1  0
  6  4  2  0
  7  1  1  0
  8  4  1  0
 10  9  1  0
 12 11  2  0
 12  9  1  0
 12  2  1  0
 13  7  2  0
 13 10  1  0
 14  2  1  0
 14  5  2  0
 15 10  2  0
 15  3  1  0
 16 14  1  0
 16  8  2  0
 17  6  1  0
M  END
>  <cid>  (58) 
JAN-GHE-83b26c96-19

>  <score>  (58) 
-18.6843

$$$$
x10392
     RDKit          3D

 20 22  0  0  0  0  0  0  0  0999 V2000
   12.5739    2.8452   23.3643 Cl  0  0  0  0  0  0  0  0  0  0  0  0
   12.3031    1.1955   22.8819 C   0  0  0  0  0  0  0  0  0  0  0  0
   13.3710    0.3237   22.8250 C   0  0  0  0  0  0  0  0  0  0  0  0
   13.1560   -0.9606   22.3483 C   0  0  0  0  0  0  0  0  0  0  0  0
   11.8852   -1.3582   21.9677 C   0  0  0  0  0  0  0  0  0  0  0  0
   11.0285    0.8072   22.5279 C   0  0  0  0  0  0  0  0  0  0  0  0
   10.8033   -0.4946   22.0948 C   0  0  0  0  0  0  0  0  0  0  0  0
    9.3763   -1.0261   22.0021 C   0  0  0  0  0  0  0  0  0  0  0  0
    8.6217   -1.5589   23.2172 C   0  0  0  0  0  0  0  0  0  0  0  0
    9.0540   -2.5094   22.1558 C   0  0  0  0  0  0  0  0  0  0  0  0
    8.5218   -0.2289   20.9975 C   0  0  0  0  0  0  0  0  0  0  0  0
    8.4575    0.9910   21.0660 O   0  0  0  0  0  0  0  0  0  0  0  0
    7.8545   -0.9279   20.0597 N   0  0  0  0  0  0  0  0  0  0  0  0
    6.9452   -0.3361   19.1529 C   0  0  0  0  0  0  0  0  0  0  0  0
    5.6754   -0.9085   18.9581 C   0  0  0  0  0  0  0  0  0  0  0  0
    5.2398   -2.1525   19.6884 C   0  0  0  0  0  0  0  0  0  0  0  0
    7.2568    0.8422   18.4771 C   0  0  0  0  0  0  0  0  0  0  0  0
    6.4102    1.4680   17.6563 N   0  0  0  0  0  0  0  0  0  0  0  0
    5.2081    0.9079   17.4683 C   0  0  0  0  0  0  0  0  0  0  0  0
    4.8084   -0.2595   18.0856 C   0  0  0  0  0  0  0  0  0  0  0  0
  2  1  1  0
  3  2  2  0
  4  3  1  0
  5  4  2  0
  6  2  1  0
  7  6  2  0
  7  5  1  0
  8  7  1  0
  9  8  1  0
 10  9  1  0
 10  8  1  0
  8 11  1  0
 12 11  2  0
 13 11  1  0
 14 13  1  0
 15 14  2  0
 16 15  1  0
 17 14  1  0
 18 17  2  0
 19 18  1  0
 20 19  2  0
 20 15  1  0
M  END
>  <cid>  (59) 
JAN-GHE-83b26c96-20

>  <score>  (59) 
-17.3738

$$$$
x10606
     RDKit          3D

 18 19  0  0  0  0  0  0  0  0999 V2000
    9.2592   -2.3116   23.0801 S   0  0  0  0  0  0  0  0  0  0  0  0
   13.7856   -2.4344   23.0501 C   0  0  0  0  0  0  0  0  0  0  0  0
   10.8408    1.9199   23.0764 N   0  0  0  0  0  0  0  0  0  0  0  0
    8.7312    1.2631   21.3407 C   0  0  0  0  0  0  0  0  0  0  0  0
   11.7052   -2.3566   24.2720 C   0  0  0  0  0  0  0  0  0  0  0  0
    8.8194   -3.4665   22.3581 O   0  0  0  0  0  0  0  0  0  0  0  0
    7.6186    0.9293   20.3808 C   0  0  0  0  0  0  0  0  0  0  0  0
   13.0805   -2.3650   21.8566 C   0  0  0  0  0  0  0  0  0  0  0  0
    9.2539    2.5513   21.4002 C   0  0  0  0  0  0  0  0  0  0  0  0
   11.0215   -2.3068   23.0671 C   0  0  0  0  0  0  0  0  0  0  0  0
    8.7823   -1.0366   22.1820 N   0  0  0  0  0  0  0  0  0  0  0  0
    8.8174   -2.1149   24.4261 O   0  0  0  0  0  0  0  0  0  0  0  0
    9.2935    0.2937   22.1881 C   0  0  0  0  0  0  0  0  0  0  0  0
   11.6972   -2.2951   21.8570 C   0  0  0  0  0  0  0  0  0  0  0  0
   10.3463    0.6778   23.0255 C   0  0  0  0  0  0  0  0  0  0  0  0
   13.0857   -2.4124   24.2395 C   0  0  0  0  0  0  0  0  0  0  0  0
   10.2892    2.8298   22.2697 C   0  0  0  0  0  0  0  0  0  0  0  0
   13.9663   -2.4117   25.7403 Cl  0  0  0  0  0  0  0  0  0  0  0  0
  1  6  2  0
  7  4  1  0
  8  2  2  0
  9  4  1  0
 10  1  1  0
 10  5  1  0
 11  1  1  0
 12  1  2  0
 13 11  1  0
 13  4  2  0
 14 10  2  0
 14  8  1  0
 15 13  1  0
 15  3  2  0
 16  5  2  0
 16  2  1  0
 17  9  2  0
 17  3  1  0
 18 16  1  0
M  END
>  <cid>  (60) 
JAN-GHE-83b26c96-21

>  <score>  (60) 
-14.451

$$$$
x10422
     RDKit          3D

 20 21  0  0  0  0  0  0  0  0999 V2000
   13.5467   -2.6454   20.6202 Cl  0  0  0  0  0  0  0  0  0  0  0  0
   12.5377   -2.4623   22.0275 C   0  0  0  0  0  0  0  0  0  0  0  0
   13.1210   -2.4696   23.2801 C   0  0  0  0  0  0  0  0  0  0  0  0
   12.2973   -2.4544   24.3947 C   0  0  0  0  0  0  0  0  0  0  0  0
   10.9200   -2.4077   24.2458 C   0  0  0  0  0  0  0  0  0  0  0  0
   11.1707   -2.3853   21.8604 C   0  0  0  0  0  0  0  0  0  0  0  0
   10.3419   -2.3522   22.9795 C   0  0  0  0  0  0  0  0  0  0  0  0
    8.8239   -2.1959   22.7921 C   0  0  0  0  0  0  0  0  0  0  0  0
    8.1762   -3.5905   22.7192 C   0  0  0  0  0  0  0  0  0  0  0  0
    8.1630   -1.4319   23.9540 C   0  0  0  0  0  0  0  0  0  0  0  0
    8.5612   -1.3750   21.5117 C   0  0  0  0  0  0  0  0  0  0  0  0
    9.3677   -0.5372   21.1368 O   0  0  0  0  0  0  0  0  0  0  0  0
    7.3899   -1.6030   20.8736 N   0  0  0  0  0  0  0  0  0  0  0  0
    6.9330   -0.8533   19.7651 C   0  0  0  0  0  0  0  0  0  0  0  0
    5.8101   -1.2982   19.0442 C   0  0  0  0  0  0  0  0  0  0  0  0
    5.0784   -2.5643   19.4059 C   0  0  0  0  0  0  0  0  0  0  0  0
    7.5102    0.3656   19.4150 C   0  0  0  0  0  0  0  0  0  0  0  0
    7.0341    1.1586   18.4500 N   0  0  0  0  0  0  0  0  0  0  0  0
    5.9708    0.7239   17.7694 C   0  0  0  0  0  0  0  0  0  0  0  0
    5.3454   -0.4809   18.0184 C   0  0  0  0  0  0  0  0  0  0  0  0
  2  1  1  0
  3  2  2  0
  4  3  1  0
  5  4  2  0
  6  2  1  0
  7  6  2  0
  7  5  1  0
  8  7  1  0
  8  9  1  0
 10  8  1  0
 11  8  1  0
 12 11  2  0
 13 11  1  0
 14 13  1  0
 15 14  2  0
 15 16  1  0
 17 14  1  0
 18 17  2  0
 19 18  1  0
 20 19  2  0
 20 15  1  0
M  END
>  <cid>  (61) 
JAN-GHE-83b26c96-22

>  <score>  (61) 
-18.7434

$$$$
x10396
     RDKit          3D

 20 21  0  0  0  0  0  0  0  0999 V2000
    8.9141   -3.4919   22.6553 F   0  0  0  0  0  0  0  0  0  0  0  0
   11.6783   -2.2451   21.7576 C   0  0  0  0  0  0  0  0  0  0  0  0
    7.0507    0.8368   18.5773 N   0  0  0  0  0  0  0  0  0  0  0  0
   12.9327   -2.6711   24.1624 C   0  0  0  0  0  0  0  0  0  0  0  0
    5.8260   -1.4023   19.7459 C   0  0  0  0  0  0  0  0  0  0  0  0
   13.6907   -2.6500   23.0085 C   0  0  0  0  0  0  0  0  0  0  0  0
    5.1307   -2.5700   20.3994 C   0  0  0  0  0  0  0  0  0  0  0  0
   10.9212   -2.3070   22.9219 C   0  0  0  0  0  0  0  0  0  0  0  0
    5.1601   -0.6134   18.8133 C   0  0  0  0  0  0  0  0  0  0  0  0
    8.9010   -1.2999   21.7691 C   0  0  0  0  0  0  0  0  0  0  0  0
    7.8456   -1.7629   21.0687 N   0  0  0  0  0  0  0  0  0  0  0  0
    9.4323   -0.2123   21.5960 O   0  0  0  0  0  0  0  0  0  0  0  0
    7.1419   -1.0392   20.0777 C   0  0  0  0  0  0  0  0  0  0  0  0
    9.4173   -2.2464   22.8759 C   0  0  0  0  0  0  0  0  0  0  0  0
    7.7042    0.0783   19.4644 C   0  0  0  0  0  0  0  0  0  0  0  0
   13.0541   -2.4157   21.7997 C   0  0  0  0  0  0  0  0  0  0  0  0
   11.5660   -2.4952   24.1383 C   0  0  0  0  0  0  0  0  0  0  0  0
    5.7994    0.4792   18.2637 C   0  0  0  0  0  0  0  0  0  0  0  0
    8.8958   -1.8464   24.0715 F   0  0  0  0  0  0  0  0  0  0  0  0
   13.7201   -2.9082   25.6957 Cl  0  0  0  0  0  0  0  0  0  0  0  0
  6  4  1  0
  7  5  1  0
  8  2  2  0
  9  5  1  0
 11 10  1  0
 12 10  2  0
 13 11  1  0
 13  5  2  0
 14 10  1  0
 14  8  1  0
 14  1  1  0
 15 13  1  0
 15  3  2  0
 16  6  2  0
 16  2  1  0
 17  8  1  0
 17  4  2  0
 18  9  2  0
 18  3  1  0
 19 14  1  0
 20  4  1  0
M  END
>  <cid>  (62) 
JAN-GHE-83b26c96-23

>  <score>  (62) 
-17.5331

$$$$
x0161
     RDKit          3D

 14 14  0  0  0  0  0  0  0  0999 V2000
    8.3206    3.3527   21.7455 C   0  0  0  0  0  0  0  0  0  0  0  0
   10.3322    2.2584   22.4440 C   0  0  0  0  0  0  0  0  0  0  0  0
   11.0704    1.0449   23.0045 C   0  0  0  0  0  0  0  0  0  0  0  0
   10.3661   -0.0824   23.4015 C   0  0  0  0  0  0  0  0  0  0  0  0
   11.0494   -1.1840   23.8994 C   0  0  0  0  0  0  0  0  0  0  0  0
   12.4357   -1.1463   23.9976 C   0  0  0  0  0  0  0  0  0  0  0  0
   13.1380   -0.0167   23.5997 C   0  0  0  0  0  0  0  0  0  0  0  0
   12.4528    1.0750   23.1014 C   0  0  0  0  0  0  0  0  0  0  0  0
   14.3619   -2.1142   25.9306 N   0  0  0  0  0  0  0  0  0  0  0  0
    8.9482    2.1903   22.2292 O   0  0  0  0  0  0  0  0  0  0  0  0
   10.9373    3.2367   22.1777 O   0  0  0  0  0  0  0  0  0  0  0  0
   14.1179   -3.2298   23.5785 O   0  0  0  0  0  0  0  0  0  0  0  0
   12.4109   -3.6291   25.0384 O   0  0  0  0  0  0  0  0  0  0  0  0
   13.3443   -2.5742   24.6390 S   0  0  0  0  0  0  0  0  0  0  0  0
  3  2  1  0
  4  3  2  0
  5  4  1  0
  6  5  2  0
  7  6  1  0
  8  7  2  0
  8  3  1  0
 10  2  1  0
 10  1  1  0
 11  2  2  0
 14 13  2  0
 14  9  1  0
 14  6  1  0
 14 12  2  0
M  END
>  <cid>  (63) 
MAT-POS-7dfc56d9-1

>  <score>  (63) 
-10.5829

$$$$
x10314
     RDKit          3D

 19 20  0  0  0  0  0  0  0  0999 V2000
   12.2395    6.5115   26.4696 N   0  0  0  0  0  0  0  0  0  0  0  0
   12.2613    6.0173   25.4416 C   0  0  0  0  0  0  0  0  0  0  0  0
   12.2543    5.3633   24.1590 C   0  0  0  0  0  0  0  0  0  0  0  0
   12.9410    5.8839   23.0635 C   0  0  0  0  0  0  0  0  0  0  0  0
   12.9235    5.3178   21.8497 N   0  0  0  0  0  0  0  0  0  0  0  0
   12.2336    4.1755   21.7144 C   0  0  0  0  0  0  0  0  0  0  0  0
   11.5317    4.1873   23.9803 C   0  0  0  0  0  0  0  0  0  0  0  0
   11.5386    3.5544   22.7421 C   0  0  0  0  0  0  0  0  0  0  0  0
   10.9480    2.1738   22.5694 C   0  0  0  0  0  0  0  0  0  0  0  0
   11.9666    1.1336   22.9922 C   0  0  0  0  0  0  0  0  0  0  0  0
   13.1674    1.3666   22.9589 O   0  0  0  0  0  0  0  0  0  0  0  0
   11.4976   -0.0990   23.1895 N   0  0  0  0  0  0  0  0  0  0  0  0
   12.1305   -1.0919   23.9705 C   0  0  0  0  0  0  0  0  0  0  0  0
   11.5199   -2.3430   24.0815 C   0  0  0  0  0  0  0  0  0  0  0  0
   10.2724   -2.6856   23.3069 C   0  0  0  0  0  0  0  0  0  0  0  0
   13.3160   -0.8575   24.6748 C   0  0  0  0  0  0  0  0  0  0  0  0
   13.9447   -1.7954   25.3895 N   0  0  0  0  0  0  0  0  0  0  0  0
   13.3864   -3.0104   25.4295 C   0  0  0  0  0  0  0  0  0  0  0  0
   12.1885   -3.3182   24.8145 C   0  0  0  0  0  0  0  0  0  0  0  0
  2  1  3  0
  3  2  1  0
  4  3  2  0
  5  4  1  0
  6  5  2  0
  7  3  1  0
  8  7  2  0
  8  6  1  0
  8  9  1  0
 10  9  1  0
 10 11  2  0
 12 10  1  0
 13 12  1  0
 14 13  2  0
 14 15  1  0
 16 13  1  0
 17 16  2  0
 18 17  1  0
 19 14  1  0
 19 18  2  0
M  END
>  <cid>  (64) 
TRY-UNI-2eddb1ff-1

>  <score>  (64) 
-16.3878

$$$$
x10723
     RDKit          3D

 18 19  0  0  0  0  0  0  0  0999 V2000
   12.2284    4.3660   21.5415 C   0  0  0  0  0  0  0  0  0  0  0  0
   13.9425   -1.9414   25.2221 N   0  0  0  0  0  0  0  0  0  0  0  0
   11.7401    4.2097   23.8544 C   0  0  0  0  0  0  0  0  0  0  0  0
   12.7614    5.5893   21.6663 N   0  0  0  0  0  0  0  0  0  0  0  0
   11.3761   -2.2297   24.1091 C   0  0  0  0  0  0  0  0  0  0  0  0
   12.2711    5.4730   23.9967 C   0  0  0  0  0  0  0  0  0  0  0  0
   10.0304   -2.4184   23.4576 C   0  0  0  0  0  0  0  0  0  0  0  0
   11.7176    3.6270   22.5946 C   0  0  0  0  0  0  0  0  0  0  0  0
   12.0652   -3.3159   24.6383 C   0  0  0  0  0  0  0  0  0  0  0  0
   12.0476    1.1989   23.0942 C   0  0  0  0  0  0  0  0  0  0  0  0
   11.3731    0.1498   23.5998 N   0  0  0  0  0  0  0  0  0  0  0  0
   13.2645    1.3172   23.1701 O   0  0  0  0  0  0  0  0  0  0  0  0
   12.0089   -0.9732   24.1678 C   0  0  0  0  0  0  0  0  0  0  0  0
   11.1862    2.2284   22.3892 C   0  0  0  0  0  0  0  0  0  0  0  0
   13.2838   -0.8846   24.7311 C   0  0  0  0  0  0  0  0  0  0  0  0
   12.7980    6.1314   22.8888 C   0  0  0  0  0  0  0  0  0  0  0  0
   13.3230   -3.1284   25.1796 C   0  0  0  0  0  0  0  0  0  0  0  0
   12.1689    6.2683   25.5423 Cl  0  0  0  0  0  0  0  0  0  0  0  0
  4  1  2  0
  6  3  1  0
  7  5  1  0
  8  3  2  0
  8  1  1  0
  9  5  1  0
 11 10  1  0
 12 10  2  0
 13 11  1  0
 13  5  2  0
 14 10  1  0
 14  8  1  0
 15 13  1  0
 15  2  2  0
 16  6  2  0
 16  4  1  0
 17  9  2  0
 17  2  1  0
  6 18  1  0
M  END
>  <cid>  (65) 
TRY-UNI-2eddb1ff-2

>  <score>  (65) 
-15.947

$$$$
x10900
     RDKit          3D

 19 20  0  0  0  0  0  0  0  0999 V2000
   11.3350    2.7463   22.3258 N   0  0  0  0  0  0  0  0  0  0  0  0
   13.4213   -2.8100   22.1639 N   0  0  0  0  0  0  0  0  0  0  0  0
   11.2847    0.3232   22.5378 C   0  0  1  0  0  0  0  0  0  0  0  0
   13.8727   -2.9670   23.4153 C   0  0  0  0  0  0  0  0  0  0  0  0
    9.4385    4.8335   23.0539 C   0  0  0  0  0  0  0  0  0  0  0  0
   12.0241    1.6527   22.7103 C   0  0  0  0  0  0  0  0  0  0  0  0
   11.4069    6.3936   22.8943 C   0  0  0  0  0  0  0  0  0  0  0  0
   12.7637    6.6022   22.7478 C   0  0  0  0  0  0  0  0  0  0  0  0
   13.1596    4.3833   22.3636 C   0  0  0  0  0  0  0  0  0  0  0  0
   12.6284   -1.7589   21.9110 C   0  0  0  0  0  0  0  0  0  0  0  0
   12.7386   -0.9836   24.1452 C   0  0  0  0  0  0  0  0  0  0  0  0
   12.2413   -0.8196   22.8583 C   0  0  0  0  0  0  0  0  0  0  0  0
   13.5561   -2.0588   24.4222 C   0  0  0  0  0  0  0  0  0  0  0  0
    9.9845    0.2783   23.3411 C   0  0  0  0  0  0  0  0  0  0  0  0
   13.6416    5.6221   22.5032 N   0  0  0  0  0  0  0  0  0  0  0  0
   13.1624    1.7053   23.1551 O   0  0  0  0  0  0  0  0  0  0  0  0
   10.8938    5.1068   22.7724 C   0  0  0  0  0  0  0  0  0  0  0  0
   11.8051    4.0709   22.4770 C   0  0  0  0  0  0  0  0  0  0  0  0
   14.1936   -2.2495   26.0333 Cl  0  0  0  0  0  0  0  0  0  0  0  0
  4  2  2  0
  6  1  1  0
  6  3  1  0
  8  7  2  0
 10  2  1  0
 12  3  1  0
 12 11  1  0
 12 10  2  0
 13 11  2  0
 13  4  1  0
  3 14  1  1
 15  9  2  0
 15  8  1  0
 16  6  2  0
 17  7  1  0
 17  5  1  0
 18 17  2  0
 18  9  1  0
 18  1  1  0
 19 13  1  0
M  END
>  <cid>  (66) 
TRY-UNI-2eddb1ff-3

>  <score>  (66) 
-16.4921

$$$$
x10789
     RDKit          3D

 24 26  0  0  0  0  0  0  0  0999 V2000
    9.1836    4.6923   23.0346 N   0  0  0  0  0  0  0  0  0  0  0  0
    9.0616   -1.4512   22.0131 N   0  0  0  0  0  0  0  0  0  0  0  0
   11.8891    5.2513   22.5295 C   0  0  0  0  0  0  0  0  0  0  0  0
   12.0695   -3.1305   24.6599 C   0  0  0  0  0  0  0  0  0  0  0  0
   10.1703   -3.2950   23.2123 O   0  0  0  0  0  0  0  0  0  0  0  0
   12.8043   -0.7795   23.3424 C   0  0  0  0  0  0  0  0  0  0  0  0
   10.9223    6.2521   22.4950 C   0  0  0  0  0  0  0  0  0  0  0  0
   11.6921   -1.5009   22.9213 C   0  0  0  0  0  0  0  0  0  0  0  0
   12.0370    1.5855   23.0333 C   0  0  0  0  0  0  0  0  0  0  0  0
   11.4549    3.9412   22.8227 C   0  0  0  0  0  0  0  0  0  0  0  0
   10.1029    3.7226   23.0795 C   0  0  0  0  0  0  0  0  0  0  0  0
    9.0647   -2.3802   23.1857 C   0  0  2  0  0  0  0  0  0  0  0  0
   13.1876   -2.4176   25.0424 C   0  0  0  0  0  0  0  0  0  0  0  0
   13.5632   -1.2547   24.4042 C   0  0  0  0  0  0  0  0  0  0  0  0
   11.3261   -2.6555   23.5929 C   0  0  0  0  0  0  0  0  0  0  0  0
    7.9092   -3.1062   22.4899 C   0  0  0  0  0  0  0  0  0  0  0  0
   13.3270    5.5653   22.2030 C   0  0  0  0  0  0  0  0  0  0  0  0
   12.3583    2.8582   22.7138 N   0  0  0  0  0  0  0  0  0  0  0  0
   10.9545    1.2617   23.5107 O   0  0  0  0  0  0  0  0  0  0  0  0
    7.0209   -1.3748   20.8531 O   0  0  0  0  0  0  0  0  0  0  0  0
   13.1151    0.5645   22.7262 C   0  0  0  0  0  0  0  0  0  0  0  0
    9.6021    5.9308   22.7410 C   0  0  0  0  0  0  0  0  0  0  0  0
    7.8488   -1.8714   21.6087 C   0  0  0  0  0  0  0  0  0  0  0  0
   14.1779   -3.0278   26.3367 Cl  0  0  0  0  0  0  0  0  0  0  0  0
  7  3  1  0
  8  6  1  0
 10  3  2  0
 11 10  1  0
 11  1  2  0
 12  5  1  6
 12  2  1  0
 13  4  2  0
 14  6  2  0
 14 13  1  0
 15  8  2  0
 15  5  1  0
 15  4  1  0
 16 12  1  0
  3 17  1  0
 10 18  1  0
 18  9  1  0
 19  9  2  0
 21  9  1  0
  6 21  1  0
 22  7  2  0
 22  1  1  0
 23 16  1  0
 23  2  1  0
 23 20  2  0
 24 13  1  0
M  END
>  <cid>  (67) 
TRY-UNI-2eddb1ff-7

>  <score>  (67) 
-17.8275

$$$$
x10466
     RDKit          3D

 20 22  0  0  0  0  0  0  0  0999 V2000
    7.4599   -1.3892   22.5714 O   0  0  0  0  0  0  0  0  0  0  0  0
    8.6095   -1.4928   22.1519 C   0  0  0  0  0  0  0  0  0  0  0  0
    9.4745   -2.6931   22.4865 C   0  0  0  0  0  0  0  0  0  0  0  0
   10.9229   -2.2789   22.5924 C   0  0  0  0  0  0  0  0  0  0  0  0
   11.7308   -2.2210   21.4638 C   0  0  0  0  0  0  0  0  0  0  0  0
   13.1060   -2.0898   21.5822 C   0  0  0  0  0  0  0  0  0  0  0  0
   13.6921   -1.9931   22.8369 C   0  0  0  0  0  0  0  0  0  0  0  0
   11.5067   -2.1213   23.8456 C   0  0  0  0  0  0  0  0  0  0  0  0
   12.8748   -1.9841   23.9490 C   0  0  0  0  0  0  0  0  0  0  0  0
   13.5825   -1.7767   25.5286 Cl  0  0  0  0  0  0  0  0  0  0  0  0
    9.1853   -0.5864   21.3418 N   0  0  0  0  0  0  0  0  0  0  0  0
    8.3941    0.3871   20.7447 N   0  0  0  0  0  0  0  0  0  0  0  0
    7.5441    0.1826   19.6598 C   0  0  0  0  0  0  0  0  0  0  0  0
    6.9067    1.4123   19.4902 C   0  0  0  0  0  0  0  0  0  0  0  0
    7.3920    2.3445   20.4140 N   0  0  0  0  0  0  0  0  0  0  0  0
    8.2627    1.6799   21.1309 C   0  0  0  0  0  0  0  0  0  0  0  0
    7.1552   -0.9558   18.9652 C   0  0  0  0  0  0  0  0  0  0  0  0
    6.0986   -0.8349   18.0696 C   0  0  0  0  0  0  0  0  0  0  0  0
    5.4560    0.3910   17.8785 C   0  0  0  0  0  0  0  0  0  0  0  0
    5.8529    1.5233   18.5844 C   0  0  0  0  0  0  0  0  0  0  0  0
  2  1  2  0
  3  2  1  0
  4  3  1  0
  5  4  2  0
  6  5  1  0
  7  6  2  0
  8  4  1  0
  9  8  2  0
  9  7  1  0
 10  9  1  0
 11  2  1  0
 12 11  1  0
 13 12  1  0
 14 13  2  0
 15 14  1  0
 16 15  2  0
 16 12  1  0
 13 17  1  0
 18 17  2  0
 19 18  1  0
 20 19  2  0
 14 20  1  0
M  END
>  <cid>  (68) 
JAN-GHE-5a013bed-2

>  <score>  (68) 
-16.5282

$$$$
x10604
     RDKit          3D

 17 18  0  0  0  0  0  0  0  0999 V2000
   11.8687   -3.4715   24.5216 O   0  0  0  0  0  0  0  0  0  0  0  0
   12.8567   -3.3102   25.2144 C   0  0  0  0  0  0  0  0  0  0  0  0
   13.4685   -4.1586   26.0580 N   0  0  0  0  0  0  0  0  0  0  0  0
   14.5230   -3.5766   26.7270 N   0  0  0  0  0  0  0  0  0  0  0  0
   14.5563   -2.3641   26.2783 C   0  0  0  0  0  0  0  0  0  0  0  0
   13.5775   -2.1488   25.3587 N   0  0  0  0  0  0  0  0  0  0  0  0
   13.3541   -0.9823   24.6473 N   0  0  0  0  0  0  0  0  0  0  0  0
   13.3774   -1.0026   23.2988 C   0  0  0  0  0  0  0  0  0  0  0  0
   13.9013   -1.8985   22.6391 O   0  0  0  0  0  0  0  0  0  0  0  0
   12.6554    0.1502   22.6303 C   0  0  0  0  0  0  0  0  0  0  0  0
   11.1552   -0.0474   22.6161 C   0  0  0  0  0  0  0  0  0  0  0  0
   10.6228   -1.3248   22.4677 C   0  0  0  0  0  0  0  0  0  0  0  0
    9.2600   -1.5157   22.5953 C   0  0  0  0  0  0  0  0  0  0  0  0
    8.6190   -3.1311   22.4460 Cl  0  0  0  0  0  0  0  0  0  0  0  0
   10.2900    1.0186   22.8362 C   0  0  0  0  0  0  0  0  0  0  0  0
    8.9229    0.8097   22.9565 C   0  0  0  0  0  0  0  0  0  0  0  0
    8.3994   -0.4690   22.8499 C   0  0  0  0  0  0  0  0  0  0  0  0
  2  1  2  0
  3  2  1  0
  4  3  1  0
  5  4  2  0
  6  5  1  0
  6  2  1  0
  7  6  1  0
  8  7  1  0
  9  8  2  0
 10  8  1  0
 11 10  1  0
 12 11  2  0
 13 12  1  0
 14 13  1  0
 15 11  1  0
 16 15  2  0
 17 16  1  0
 17 13  2  0
M  END
>  <cid>  (69) 
JAN-GHE-5a013bed-4

>  <score>  (69) 
-12.6903

$$$$
x11041
     RDKit          3D

 19 20  0  0  0  0  0  0  0  0999 V2000
   11.2505    2.9493   22.7113 N   0  0  0  0  0  0  0  0  0  0  0  0
   13.0934    6.6378   22.5172 C   0  0  0  0  0  0  0  0  0  0  0  0
   11.9165    1.7866   22.9311 C   0  0  0  0  0  0  0  0  0  0  0  0
   12.5477   -1.0926   24.2476 C   0  0  0  0  0  0  0  0  0  0  0  0
   11.1370    0.4852   22.8922 C   0  0  0  0  0  0  0  0  0  0  0  0
   13.7452   -2.9251   23.2338 C   0  0  0  0  0  0  0  0  0  0  0  0
   13.2587   -2.5409   21.9939 C   0  0  0  0  0  0  0  0  0  0  0  0
   12.4255   -1.4381   21.8816 C   0  0  0  0  0  0  0  0  0  0  0  0
   12.7732    4.5244   21.7142 C   0  0  0  0  0  0  0  0  0  0  0  0
   11.5975    5.1998   23.7103 C   0  0  0  0  0  0  0  0  0  0  0  0
   11.8822    4.2328   22.7449 C   0  0  0  0  0  0  0  0  0  0  0  0
   12.2220    6.4334   23.5669 C   0  0  0  0  0  0  0  0  0  0  0  0
   10.6870    4.9326   24.8824 C   0  0  0  0  0  0  0  0  0  0  0  0
    9.8317    2.9231   22.3517 C   0  0  0  0  0  0  0  0  0  0  0  0
   13.3796    5.7092   21.5968 N   0  0  0  0  0  0  0  0  0  0  0  0
   13.1226    1.7678   23.1491 O   0  0  0  0  0  0  0  0  0  0  0  0
   13.3878   -2.1813   24.3411 C   0  0  0  0  0  0  0  0  0  0  0  0
   12.0639   -0.7028   23.0037 C   0  0  0  0  0  0  0  0  0  0  0  0
   14.1129   -2.5466   25.8778 Cl  0  0  0  0  0  0  0  0  0  0  0  0
  3  1  1  0
  5  3  1  0
  7  6  2  0
  8  7  1  0
 11 10  2  0
 11  9  1  0
 11  1  1  0
 12 10  1  0
 12  2  2  0
 13 10  1  0
 14  1  1  0
 15  2  1  0
 15  9  2  0
 16  3  2  0
 17  6  1  0
 17  4  2  0
 18  5  1  0
 18  8  2  0
 18  4  1  0
 17 19  1  0
M  END
>  <cid>  (70) 
EDG-MED-0da5ad92-1

>  <score>  (70) 
-17.4374

$$$$
x10201
     RDKit          3D

 17 18  0  0  0  0  0  0  0  0999 V2000
   13.2604    1.1163   23.1831 O   0  0  0  0  0  0  0  0  0  0  0  0
   12.0451    0.9754   23.1767 C   0  0  0  0  0  0  0  0  0  0  0  0
   11.1153    2.0075   22.5701 C   0  0  0  0  0  0  0  0  0  0  0  0
   11.6685    3.4045   22.7207 C   0  0  0  0  0  0  0  0  0  0  0  0
   12.3208    4.0386   21.6707 C   0  0  0  0  0  0  0  0  0  0  0  0
   12.9355    5.2659   21.8570 C   0  0  0  0  0  0  0  0  0  0  0  0
   12.8978    5.8882   23.0948 C   0  0  0  0  0  0  0  0  0  0  0  0
   11.6074    4.0435   23.9531 C   0  0  0  0  0  0  0  0  0  0  0  0
   12.2230    5.2664   24.1223 C   0  0  0  0  0  0  0  0  0  0  0  0
   12.0974    6.0628   25.6614 Cl  0  0  0  0  0  0  0  0  0  0  0  0
   11.4350   -0.1082   23.6651 N   0  0  0  0  0  0  0  0  0  0  0  0
   12.0967   -1.2178   24.2114 C   0  0  0  0  0  0  0  0  0  0  0  0
   11.4752   -2.4636   24.2236 C   0  0  0  0  0  0  0  0  0  0  0  0
   11.9987   -3.5391   24.8146 N   0  0  0  0  0  0  0  0  0  0  0  0
   13.1826   -3.3945   25.4198 C   0  0  0  0  0  0  0  0  0  0  0  0
   13.8838   -2.2072   25.4522 C   0  0  0  0  0  0  0  0  0  0  0  0
   13.3275   -1.0994   24.8424 C   0  0  0  0  0  0  0  0  0  0  0  0
  2  1  2  0
  3  2  1  0
  4  3  1  0
  5  4  2  0
  6  5  1  0
  7  6  2  0
  8  4  1  0
  9  8  2  0
  9  7  1  0
 10  9  1  0
 11  2  1  0
 12 11  1  0
 13 12  2  0
 14 13  1  0
 15 14  2  0
 16 15  1  0
 17 16  2  0
 17 12  1  0
M  END
>  <cid>  (71) 
EDG-MED-0da5ad92-2

>  <score>  (71) 
-16.5231

$$$$
x11562
     RDKit          3D

 23 24  0  0  0  0  0  0  0  0999 V2000
   10.9922    1.1299   23.5767 O   0  0  0  0  0  0  0  0  0  0  0  0
   12.0471    1.3905   23.0015 C   0  0  0  0  0  0  0  0  0  0  0  0
   12.4446    2.6428   22.7046 N   0  0  0  0  0  0  0  0  0  0  0  0
   11.7698    3.8130   23.1275 C   0  0  0  0  0  0  0  0  0  0  0  0
   12.2539    5.0718   22.7435 C   0  0  0  0  0  0  0  0  0  0  0  0
   13.4617    5.2245   21.8527 C   0  0  0  0  0  0  0  0  0  0  0  0
   11.5292    6.1868   23.1552 C   0  0  0  0  0  0  0  0  0  0  0  0
   10.3786    6.0179   23.8970 C   0  0  0  0  0  0  0  0  0  0  0  0
    9.9020    4.8216   24.2620 N   0  0  0  0  0  0  0  0  0  0  0  0
   10.5976    3.7443   23.8803 C   0  0  0  0  0  0  0  0  0  0  0  0
   13.0234    0.3093   22.5796 C   0  0  0  0  0  0  0  0  0  0  0  0
   12.7008   -0.9847   23.2907 C   0  0  0  0  0  0  0  0  0  0  0  0
   13.5128   -1.4444   24.3209 C   0  0  0  0  0  0  0  0  0  0  0  0
   13.1510   -2.5673   25.0315 C   0  0  0  0  0  0  0  0  0  0  0  0
   14.1860   -3.1155   26.3279 Cl  0  0  0  0  0  0  0  0  0  0  0  0
   12.0049   -3.2754   24.7299 C   0  0  0  0  0  0  0  0  0  0  0  0
   11.2080   -2.8548   23.6760 C   0  0  0  0  0  0  0  0  0  0  0  0
   11.5444   -1.7004   22.9817 C   0  0  0  0  0  0  0  0  0  0  0  0
   10.7211   -1.1014   22.0626 O   0  0  0  0  0  0  0  0  0  0  0  0
    9.3712   -1.5756   21.9197 C   0  0  0  0  0  0  0  0  0  0  0  0
    8.6710   -0.6833   20.9230 C   0  0  0  0  0  0  0  0  0  0  0  0
    7.2172   -1.0840   20.6671 C   0  0  0  0  0  0  0  0  0  0  0  0
    6.5545   -0.2965   19.5594 C   0  0  0  0  0  0  0  0  0  0  0  0
  2  1  2  0
  3  2  1  0
  4  3  1  0
  5  4  2  0
  5  6  1  0
  7  5  1  0
  8  7  2  0
  9  8  1  0
 10  9  2  0
 10  4  1  0
 11  2  1  0
 12 11  1  0
 13 12  2  0
 14 13  1  0
 15 14  1  0
 16 14  2  0
 17 16  1  0
 18 12  1  0
 18 17  2  0
 18 19  1  0
 20 19  1  0
 21 20  1  0
 22 21  1  0
 23 22  1  0
M  END
>  <cid>  (72) 
EDG-MED-0da5ad92-7

>  <score>  (72) 
-16.0014

$$$$
x10723
     RDKit          3D

 18 19  0  0  0  0  0  0  0  0999 V2000
   11.5821   -2.2832   21.7651 C   0  0  0  0  0  0  0  0  0  0  0  0
    7.0662    0.8421   18.6131 N   0  0  0  0  0  0  0  0  0  0  0  0
   11.5524   -2.2961   24.1338 C   0  0  0  0  0  0  0  0  0  0  0  0
   12.9178   -2.3789   21.7125 N   0  0  0  0  0  0  0  0  0  0  0  0
    5.8267   -1.3994   19.7738 C   0  0  0  0  0  0  0  0  0  0  0  0
   12.9271   -2.3793   24.0968 C   0  0  0  0  0  0  0  0  0  0  0  0
    5.1210   -2.5564   20.4331 C   0  0  0  0  0  0  0  0  0  0  0  0
   10.8482   -2.2514   22.9383 C   0  0  0  0  0  0  0  0  0  0  0  0
    5.1642   -0.6007   18.8476 C   0  0  0  0  0  0  0  0  0  0  0  0
    8.8265   -1.2798   21.8328 C   0  0  0  0  0  0  0  0  0  0  0  0
    7.8492   -1.7986   21.0666 N   0  0  0  0  0  0  0  0  0  0  0  0
    9.2636   -0.1445   21.6894 O   0  0  0  0  0  0  0  0  0  0  0  0
    7.1522   -1.0503   20.0960 C   0  0  0  0  0  0  0  0  0  0  0  0
    9.3390   -2.2029   22.9209 C   0  0  0  0  0  0  0  0  0  0  0  0
    7.7211    0.0725   19.4909 C   0  0  0  0  0  0  0  0  0  0  0  0
   13.5840   -2.4440   22.8709 C   0  0  0  0  0  0  0  0  0  0  0  0
    5.8128    0.4893   18.2985 C   0  0  0  0  0  0  0  0  0  0  0  0
   13.8243   -2.2871   25.5862 Cl  0  0  0  0  0  0  0  0  0  0  0  0
  4  1  2  0
  6  3  1  0
  7  5  1  0
  8  3  2  0
  8  1  1  0
  9  5  1  0
 11 10  1  0
 12 10  2  0
 13 11  1  0
 13  5  2  0
 14 10  1  0
 14  8  1  0
 15 13  1  0
 15  2  2  0
 16  6  2  0
 16  4  1  0
 17  9  2  0
 17  2  1  0
  6 18  1  0
M  END
>  <cid>  (73) 
EDG-MED-0da5ad92-8

>  <score>  (73) 
-15.9869

$$$$
x10422
     RDKit          3D

 20 21  0  0  0  0  0  0  0  0999 V2000
   13.5344   -2.6121   20.5751 Cl  0  0  0  0  0  0  0  0  0  0  0  0
   12.5446   -2.4720   22.0008 C   0  0  0  0  0  0  0  0  0  0  0  0
   13.1472   -2.4940   23.2440 C   0  0  0  0  0  0  0  0  0  0  0  0
   12.3407   -2.5132   24.3710 C   0  0  0  0  0  0  0  0  0  0  0  0
   10.9607   -2.4854   24.2440 C   0  0  0  0  0  0  0  0  0  0  0  0
   11.1742   -2.4134   21.8559 C   0  0  0  0  0  0  0  0  0  0  0  0
   10.3623   -2.4148   22.9878 C   0  0  0  0  0  0  0  0  0  0  0  0
    8.8394   -2.2790   22.8265 C   0  0  0  0  0  0  0  0  0  0  0  0
    8.2104   -3.6822   22.7542 C   0  0  0  0  0  0  0  0  0  0  0  0
    8.1870   -1.5326   24.0047 C   0  0  0  0  0  0  0  0  0  0  0  0
    8.5439   -1.4530   21.5565 C   0  0  0  0  0  0  0  0  0  0  0  0
    9.3352   -0.6056   21.1710 O   0  0  0  0  0  0  0  0  0  0  0  0
    7.3623   -1.6880   20.9404 N   0  0  0  0  0  0  0  0  0  0  0  0
    6.8768   -0.9360   19.8457 C   0  0  0  0  0  0  0  0  0  0  0  0
    5.7335   -1.3776   19.1554 C   0  0  0  0  0  0  0  0  0  0  0  0
    5.0092   -2.6425   19.5357 C   0  0  0  0  0  0  0  0  0  0  0  0
    7.4468    0.2820   19.4811 C   0  0  0  0  0  0  0  0  0  0  0  0
    6.9461    1.0772   18.5305 N   0  0  0  0  0  0  0  0  0  0  0  0
    5.8635    0.6456   17.8789 C   0  0  0  0  0  0  0  0  0  0  0  0
    5.2425   -0.5581   18.1437 C   0  0  0  0  0  0  0  0  0  0  0  0
  2  1  1  0
  3  2  2  0
  4  3  1  0
  5  4  2  0
  6  2  1  0
  7  6  2  0
  7  5  1  0
  8  7  1  0
  8  9  1  0
 10  8  1  0
 11  8  1  0
 12 11  2  0
 13 11  1  0
 14 13  1  0
 15 14  2  0
 15 16  1  0
 17 14  1  0
 18 17  2  0
 19 18  1  0
 20 19  2  0
 20 15  1  0
M  END
>  <cid>  (74) 
EDG-MED-0da5ad92-10

>  <score>  (74) 
-18.7021

$$$$
x10392
     RDKit          3D

 20 22  0  0  0  0  0  0  0  0999 V2000
   13.7321   -2.6059   25.5494 Cl  0  0  0  0  0  0  0  0  0  0  0  0
   12.8855   -2.4851   24.0341 C   0  0  0  0  0  0  0  0  0  0  0  0
   13.5936   -2.5854   22.8541 C   0  0  0  0  0  0  0  0  0  0  0  0
   12.9211   -2.3926   21.6569 C   0  0  0  0  0  0  0  0  0  0  0  0
   11.5606   -2.1342   21.6564 C   0  0  0  0  0  0  0  0  0  0  0  0
   11.5269   -2.2508   24.0485 C   0  0  0  0  0  0  0  0  0  0  0  0
   10.8432   -2.1045   22.8468 C   0  0  0  0  0  0  0  0  0  0  0  0
    9.3187   -2.1594   22.8310 C   0  0  0  0  0  0  0  0  0  0  0  0
    8.4938   -2.3403   24.1024 C   0  0  0  0  0  0  0  0  0  0  0  0
    8.5527   -3.4489   23.1103 C   0  0  0  0  0  0  0  0  0  0  0  0
    8.7121   -1.2022   21.7866 C   0  0  0  0  0  0  0  0  0  0  0  0
    9.0183   -0.0176   21.7767 O   0  0  0  0  0  0  0  0  0  0  0  0
    7.8380   -1.7215   20.9038 N   0  0  0  0  0  0  0  0  0  0  0  0
    7.1205   -0.9376   19.9710 C   0  0  0  0  0  0  0  0  0  0  0  0
    5.8222   -1.3174   19.5863 C   0  0  0  0  0  0  0  0  0  0  0  0
    5.1553   -2.5516   20.1364 C   0  0  0  0  0  0  0  0  0  0  0  0
    7.6507    0.2434   19.4550 C   0  0  0  0  0  0  0  0  0  0  0  0
    6.9892    1.0452   18.6173 N   0  0  0  0  0  0  0  0  0  0  0  0
    5.7583    0.6679   18.2477 C   0  0  0  0  0  0  0  0  0  0  0  0
    5.1494   -0.4856   18.6976 C   0  0  0  0  0  0  0  0  0  0  0  0
  2  1  1  0
  3  2  2  0
  4  3  1  0
  5  4  2  0
  6  2  1  0
  7  6  2  0
  7  5  1  0
  8  7  1  0
  9  8  1  0
 10  9  1  0
 10  8  1  0
  8 11  1  0
 12 11  2  0
 13 11  1  0
 14 13  1  0
 15 14  2  0
 16 15  1  0
 17 14  1  0
 18 17  2  0
 19 18  1  0
 20 19  2  0
 20 15  1  0
M  END
>  <cid>  (75) 
EDG-MED-0da5ad92-11

>  <score>  (75) 
-17.7387

$$$$
x10976
     RDKit          3D

 18 19  0  0  0  0  0  0  0  0999 V2000
   11.9224    7.3095   24.9691 Cl  0  0  0  0  0  0  0  0  0  0  0  0
   12.2518    6.2815   23.6041 C   0  0  0  0  0  0  0  0  0  0  0  0
   13.2311    6.6421   22.7060 C   0  0  0  0  0  0  0  0  0  0  0  0
   13.4379    5.8408   21.5942 C   0  0  0  0  0  0  0  0  0  0  0  0
   12.6998    4.6780   21.4233 C   0  0  0  0  0  0  0  0  0  0  0  0
   11.5030    5.1350   23.4424 C   0  0  0  0  0  0  0  0  0  0  0  0
   11.7378    4.3064   22.3515 C   0  0  0  0  0  0  0  0  0  0  0  0
   11.0063    2.9894   22.2353 C   0  0  0  0  0  0  0  0  0  0  0  0
   11.8353    1.8916   22.8689 C   0  0  0  0  0  0  0  0  0  0  0  0
   12.6872    2.1361   23.7154 O   0  0  0  0  0  0  0  0  0  0  0  0
   11.5891    0.6545   22.4033 N   0  0  0  0  0  0  0  0  0  0  0  0
   12.3457   -0.5007   22.6889 C   0  0  0  0  0  0  0  0  0  0  0  0
   12.5577   -1.5054   21.7516 C   0  0  0  0  0  0  0  0  0  0  0  0
   13.2070   -2.6381   22.0257 N   0  0  0  0  0  0  0  0  0  0  0  0
   13.6658   -2.8038   23.2742 C   0  0  0  0  0  0  0  0  0  0  0  0
   12.8335   -0.7039   23.9760 C   0  0  0  0  0  0  0  0  0  0  0  0
   13.4989   -1.8765   24.2958 C   0  0  0  0  0  0  0  0  0  0  0  0
   14.0081   -2.1337   25.6941 C   0  0  0  0  0  0  0  0  0  0  0  0
  2  1  1  0
  3  2  2  0
  4  3  1  0
  5  4  2  0
  6  2  1  0
  7  5  1  0
  7  6  2  0
  7  8  1  0
  9  8  1  0
 10  9  2  0
 11  9  1  0
 12 11  1  0
 13 12  2  0
 14 13  1  0
 15 14  2  0
 16 12  1  0
 17 15  1  0
 17 16  2  0
 18 17  1  0
M  END
>  <cid>  (76) 
EDG-MED-0da5ad92-12

>  <score>  (76) 
-17.0941

$$$$
x11485
     RDKit          3D

 18 19  0  0  0  0  0  0  0  0999 V2000
   12.1391    6.4187   25.5102 Cl  0  0  0  0  0  0  0  0  0  0  0  0
   12.2493    5.6208   23.9641 C   0  0  0  0  0  0  0  0  0  0  0  0
   12.8781    6.2610   22.9135 C   0  0  0  0  0  0  0  0  0  0  0  0
   12.8416    5.6690   21.6590 C   0  0  0  0  0  0  0  0  0  0  0  0
   12.2491    4.4269   21.4913 C   0  0  0  0  0  0  0  0  0  0  0  0
   11.6452    4.3874   23.8071 C   0  0  0  0  0  0  0  0  0  0  0  0
   11.6728    3.7612   22.5658 C   0  0  0  0  0  0  0  0  0  0  0  0
   11.1571    2.3494   22.4205 C   0  0  0  0  0  0  0  0  0  0  0  0
   12.0482    1.3313   23.1057 C   0  0  0  0  0  0  0  0  0  0  0  0
   13.2688    1.4852   23.2195 O   0  0  0  0  0  0  0  0  0  0  0  0
   11.3989    0.2255   23.5146 N   0  0  0  0  0  0  0  0  0  0  0  0
   11.9773   -0.8957   24.1091 C   0  0  0  0  0  0  0  0  0  0  0  0
   11.3182   -2.1494   24.0613 C   0  0  0  0  0  0  0  0  0  0  0  0
    9.9968   -2.3503   23.3626 C   0  0  0  0  0  0  0  0  0  0  0  0
   13.2035   -0.7660   24.6149 N   0  0  0  0  0  0  0  0  0  0  0  0
   13.8615   -1.8307   25.1135 N   0  0  0  0  0  0  0  0  0  0  0  0
   13.2824   -3.0291   25.1017 C   0  0  0  0  0  0  0  0  0  0  0  0
   12.0139   -3.2250   24.5908 C   0  0  0  0  0  0  0  0  0  0  0  0
  2  1  1  0
  3  2  2  0
  4  3  1  0
  5  4  2  0
  6  2  1  0
  7  5  1  0
  7  6  2  0
  7  8  1  0
  9  8  1  0
  9 10  2  0
 11  9  1  0
 12 11  1  0
 13 12  2  0
 13 14  1  0
 15 12  1  0
 16 15  2  0
 17 16  1  0
 18 13  1  0
 18 17  2  0
M  END
>  <cid>  (77) 
EDG-MED-0da5ad92-15

>  <score>  (77) 
-17.0697

$$$$
x11013
     RDKit          3D

 18 19  0  0  0  0  0  0  0  0999 V2000
   13.5532   -2.5699   25.5218 Cl  0  0  0  0  0  0  0  0  0  0  0  0
   12.7876   -2.5059   23.9546 C   0  0  0  0  0  0  0  0  0  0  0  0
   13.5732   -2.4829   22.8229 C   0  0  0  0  0  0  0  0  0  0  0  0
   12.9563   -2.3091   21.5916 C   0  0  0  0  0  0  0  0  0  0  0  0
   11.5769   -2.2096   21.5071 C   0  0  0  0  0  0  0  0  0  0  0  0
   11.4093   -2.4193   23.8864 C   0  0  0  0  0  0  0  0  0  0  0  0
   10.7865   -2.2912   22.6466 C   0  0  0  0  0  0  0  0  0  0  0  0
    9.2802   -2.3719   22.5407 C   0  0  0  0  0  0  0  0  0  0  0  0
    8.7533   -1.2857   21.6212 C   0  0  0  0  0  0  0  0  0  0  0  0
    9.2256   -0.1519   21.6252 O   0  0  0  0  0  0  0  0  0  0  0  0
    7.7400   -1.6703   20.8127 N   0  0  0  0  0  0  0  0  0  0  0  0
    7.0765   -0.8743   19.8447 C   0  0  0  0  0  0  0  0  0  0  0  0
    5.8357   -1.2873   19.3221 C   0  0  0  0  0  0  0  0  0  0  0  0
    5.1392   -2.5321   19.8114 C   0  0  0  0  0  0  0  0  0  0  0  0
    7.5897    0.3190   19.3435 C   0  0  0  0  0  0  0  0  0  0  0  0
    6.9862    1.0481   18.4186 N   0  0  0  0  0  0  0  0  0  0  0  0
    5.7894    0.6350   17.9079 N   0  0  0  0  0  0  0  0  0  0  0  0
    5.2410   -0.4921   18.3474 C   0  0  0  0  0  0  0  0  0  0  0  0
  2  1  1  0
  3  2  2  0
  4  3  1  0
  5  4  2  0
  6  2  1  0
  7  5  1  0
  7  6  2  0
  7  8  1  0
  9  8  1  0
 10  9  2  0
 11  9  1  0
 12 11  1  0
 13 12  2  0
 14 13  1  0
 15 12  1  0
 16 15  2  0
 17 16  1  0
 18 17  2  0
 18 13  1  0
M  END
>  <cid>  (78) 
EDG-MED-0da5ad92-16

>  <score>  (78) 
-17.3837

$$$$
x10494
     RDKit          3D

 19 20  0  0  0  0  0  0  0  0999 V2000
    9.4505    4.8958   23.6481 N   0  0  0  0  0  0  0  0  0  0  0  0
   12.4851    2.8267   23.2254 N   0  0  0  0  0  0  0  0  0  0  0  0
   12.0118    5.1227   22.5522 C   0  0  0  0  0  0  0  0  0  0  0  0
   11.9124   -3.1343   24.5762 C   0  0  0  0  0  0  0  0  0  0  0  0
   12.8271   -0.7582   23.4224 C   0  0  0  0  0  0  0  0  0  0  0  0
   11.1140    6.1826   22.5188 C   0  0  0  0  0  0  0  0  0  0  0  0
   12.1365    1.5838   22.8374 C   0  0  0  0  0  0  0  0  0  0  0  0
   11.6034    3.9343   23.1702 C   0  0  0  0  0  0  0  0  0  0  0  0
   10.3020    3.8434   23.7200 C   0  0  0  0  0  0  0  0  0  0  0  0
   11.2450   -2.5797   23.4968 C   0  0  0  0  0  0  0  0  0  0  0  0
   13.5104   -1.3333   24.4879 C   0  0  0  0  0  0  0  0  0  0  0  0
   11.7056   -1.4054   22.9189 C   0  0  0  0  0  0  0  0  0  0  0  0
   13.0571   -2.5160   25.0329 C   0  0  0  0  0  0  0  0  0  0  0  0
   13.3802    5.2635   21.9341 C   0  0  0  0  0  0  0  0  0  0  0  0
    9.8664    2.7271   24.3115 N   0  0  0  0  0  0  0  0  0  0  0  0
   11.0087    1.2844   22.4554 O   0  0  0  0  0  0  0  0  0  0  0  0
   13.2699    0.5772   22.8741 C   0  0  0  0  0  0  0  0  0  0  0  0
    9.8663    6.0295   23.0723 C   0  0  0  0  0  0  0  0  0  0  0  0
   14.0210   -3.2985   26.2532 Cl  0  0  0  0  0  0  0  0  0  0  0  0
  6  3  1  0
  7  2  1  0
  8  3  2  0
  8  2  1  0
  9  8  1  0
  9  1  2  0
 10  4  2  0
 11  5  1  0
 12  5  2  0
 12 10  1  0
 13 11  2  0
 13  4  1  0
 14  3  1  0
 15  9  1  0
 16  7  2  0
 17  7  1  0
  5 17  1  0
 18  6  2  0
 18  1  1  0
 13 19  1  0
M  END
>  <cid>  (79) 
EDG-MED-0da5ad92-18

>  <score>  (79) 
-15.1956

$$$$
x11025
     RDKit          3D

 17 18  0  0  0  0  0  0  0  0999 V2000
   13.7001   -2.8002   25.6017 Cl  0  0  0  0  0  0  0  0  0  0  0  0
   12.9718   -2.6507   24.0280 C   0  0  0  0  0  0  0  0  0  0  0  0
   13.7810   -2.5831   22.9182 C   0  0  0  0  0  0  0  0  0  0  0  0
   13.1953   -2.3724   21.6798 C   0  0  0  0  0  0  0  0  0  0  0  0
   11.8173   -2.2779   21.5664 C   0  0  0  0  0  0  0  0  0  0  0  0
   11.5969   -2.5613   23.9320 C   0  0  0  0  0  0  0  0  0  0  0  0
   11.0038   -2.4046   22.6821 C   0  0  0  0  0  0  0  0  0  0  0  0
    9.5065   -2.5212   22.5343 C   0  0  0  0  0  0  0  0  0  0  0  0
    8.9309   -1.2270   21.9935 C   0  0  0  0  0  0  0  0  0  0  0  0
    9.2257   -0.1299   22.4655 O   0  0  0  0  0  0  0  0  0  0  0  0
    8.0757   -1.3774   20.9398 N   0  0  0  0  0  0  0  0  0  0  0  0
    7.5305   -0.2843   20.2368 C   0  0  0  0  0  0  0  0  0  0  0  0
    6.6765   -0.3040   19.1597 C   0  0  0  0  0  0  0  0  0  0  0  0
    5.9767   -1.4297   18.4683 C   0  0  0  0  0  0  0  0  0  0  0  0
    7.8065    1.0605   20.4854 C   0  0  0  0  0  0  0  0  0  0  0  0
    7.1768    1.8359   19.6116 N   0  0  0  0  0  0  0  0  0  0  0  0
    6.4911    0.9780   18.8001 N   0  0  0  0  0  0  0  0  0  0  0  0
  2  1  1  0
  3  2  2  0
  4  3  1  0
  5  4  2  0
  6  2  1  0
  7  5  1  0
  7  6  2  0
  7  8  1  0
  9  8  1  0
 10  9  2  0
 11  9  1  0
 12 11  1  0
 13 12  2  0
 14 13  1  0
 15 12  1  0
 16 15  2  0
 17 16  1  0
 17 13  1  0
M  END
>  <cid>  (80) 
EDG-MED-0da5ad92-21

>  <score>  (80) 
-23.9907

$$$$
x10756
     RDKit          3D

 23 25  0  0  0  0  0  0  0  0999 V2000
    6.6280    1.4219   17.9754 N   0  0  0  0  0  0  0  0  0  0  0  0
   11.5532    3.6358   24.1132 N   0  0  0  0  0  0  0  0  0  0  0  0
    5.7171   -1.0387   18.9871 C   0  0  0  0  0  0  0  0  0  0  0  0
   13.4787   -0.2166   22.2117 C   0  0  0  0  0  0  0  0  0  0  0  0
   12.5982    1.4408   23.7553 O   0  0  0  0  0  0  0  0  0  0  0  0
   10.8920   -1.2736   22.0751 C   0  0  0  0  0  0  0  0  0  0  0  0
    4.9161   -0.2446   18.1715 C   0  0  0  0  0  0  0  0  0  0  0  0
   11.1839   -0.2397   22.9587 C   0  0  0  0  0  0  0  0  0  0  0  0
    8.6346   -0.7400   21.0994 C   0  0  0  0  0  0  0  0  0  0  0  0
    7.0108   -0.5633   19.2799 C   0  0  0  0  0  0  0  0  0  0  0  0
    7.4133    0.6604   18.7457 C   0  0  0  0  0  0  0  0  0  0  0  0
   11.8949    2.5547   23.1727 C   0  0  2  0  0  0  0  0  0  0  0  0
   13.1973   -1.2698   21.3585 C   0  0  0  0  0  0  0  0  0  0  0  0
   11.9145   -1.7917   21.2921 C   0  0  0  0  0  0  0  0  0  0  0  0
   12.4603    0.3013   22.9966 C   0  0  0  0  0  0  0  0  0  0  0  0
   12.9738    3.4848   22.6091 C   0  0  0  0  0  0  0  0  0  0  0  0
    5.1807   -2.3164   19.5776 C   0  0  0  0  0  0  0  0  0  0  0  0
    7.8404   -1.2933   20.1599 N   0  0  0  0  0  0  0  0  0  0  0  0
    8.6887    0.4679   21.3076 O   0  0  0  0  0  0  0  0  0  0  0  0
   12.4430    5.7565   23.6261 O   0  0  0  0  0  0  0  0  0  0  0  0
    9.4622   -1.7344   21.8918 C   0  0  0  0  0  0  0  0  0  0  0  0
    5.4027    0.9586   17.7001 C   0  0  0  0  0  0  0  0  0  0  0  0
   12.3314    4.5412   23.4923 C   0  0  0  0  0  0  0  0  0  0  0  0
  7  3  1  0
  8  6  1  0
 10  3  2  0
 11 10  1  0
 11  1  2  0
 12  5  1  1
 12  2  1  0
 13  4  2  0
 14 13  1  0
 14  6  2  0
 15  8  2  0
 15  5  1  0
 15  4  1  0
 16 12  1  0
  3 17  1  0
 10 18  1  0
 18  9  1  0
 19  9  2  0
 21  9  1  0
  6 21  1  0
 22  7  2  0
 22  1  1  0
 23 16  1  0
 23  2  1  0
 23 20  2  0
M  END
>  <cid>  (81) 
BRU-LEF-c49414a7-1

>  <score>  (81) 
-18.7034

$$$$
x11011
     RDKit          3D

 18 19  0  0  0  0  0  0  0  0999 V2000
   10.6945   -1.7913   23.1111 C   0  0  0  0  0  0  0  0  0  0  0  0
   10.4658    4.6980   25.5215 N   0  0  0  0  0  0  0  0  0  0  0  0
   12.7699   -2.0512   24.8970 C   0  0  0  0  0  0  0  0  0  0  0  0
   12.4140    4.9029   23.5229 C   0  0  0  0  0  0  0  0  0  0  0  0
   11.9458   -3.1336   24.6633 C   0  0  0  0  0  0  0  0  0  0  0  0
   13.4492    5.0780   22.4409 C   0  0  0  0  0  0  0  0  0  0  0  0
   11.4958   -0.6943   23.4101 C   0  0  0  0  0  0  0  0  0  0  0  0
   12.3775    5.7921   24.5916 C   0  0  0  0  0  0  0  0  0  0  0  0
   11.2228    0.5702   22.8518 N   0  0  0  0  0  0  0  0  0  0  0  0
   11.3797    2.9145   22.3240 C   0  0  0  0  0  0  0  0  0  0  0  0
   13.2133    1.6206   23.1733 O   0  0  0  0  0  0  0  0  0  0  0  0
   11.4465    3.8861   23.4789 C   0  0  0  0  0  0  0  0  0  0  0  0
   12.0383    1.6423   22.8183 C   0  0  0  0  0  0  0  0  0  0  0  0
   10.5186    3.8336   24.5041 C   0  0  0  0  0  0  0  0  0  0  0  0
   10.9132   -3.0007   23.7512 C   0  0  0  0  0  0  0  0  0  0  0  0
   12.5522   -0.8255   24.3031 C   0  0  0  0  0  0  0  0  0  0  0  0
   11.3905    5.6642   25.5481 C   0  0  0  0  0  0  0  0  0  0  0  0
   14.2117   -2.2796   25.8381 Cl  0  0  0  0  0  0  0  0  0  0  0  0
  5  3  1  0
  6  4  1  0
  7  1  2  0
  8  4  1  0
  9  7  1  0
 12  4  2  0
 12 10  1  0
 13 11  2  0
 13 10  1  0
 13  9  1  0
 14 12  1  0
 14  2  2  0
 15  1  1  0
 15  5  2  0
 16  7  1  0
 16  3  2  0
 17  8  2  0
 17  2  1  0
  3 18  1  0
M  END
>  <cid>  (82) 
EDJ-MED-49816e9b-1

>  <score>  (82) 
-15.9832

$$$$
x10334
     RDKit          3D

 19 20  0  0  0  0  0  0  0  0999 V2000
    5.6823   -6.3522   20.7229 Cl  0  0  0  0  0  0  0  0  0  0  0  0
    5.9213   -4.7409   21.3425 C   0  0  0  0  0  0  0  0  0  0  0  0
    5.1523   -3.7079   20.8504 C   0  0  0  0  0  0  0  0  0  0  0  0
    5.4131   -2.4189   21.2887 C   0  0  0  0  0  0  0  0  0  0  0  0
    6.4047   -2.1893   22.2299 C   0  0  0  0  0  0  0  0  0  0  0  0
    6.9073   -4.5277   22.2867 C   0  0  0  0  0  0  0  0  0  0  0  0
    7.1439   -3.2393   22.7559 C   0  0  0  0  0  0  0  0  0  0  0  0
    8.1161   -3.0128   23.8903 C   0  0  0  0  0  0  0  0  0  0  0  0
    9.4352   -2.4503   23.3963 C   0  0  0  0  0  0  0  0  0  0  0  0
   10.1431   -3.0627   22.5991 O   0  0  0  0  0  0  0  0  0  0  0  0
    9.7524   -1.2321   23.8969 N   0  0  0  0  0  0  0  0  0  0  0  0
   10.9644   -0.5393   23.5922 C   0  0  0  0  0  0  0  0  0  0  0  0
   10.8979    0.7119   22.9687 C   0  0  0  0  0  0  0  0  0  0  0  0
    9.5855    1.3550   22.5998 C   0  0  0  0  0  0  0  0  0  0  0  0
   12.2131   -1.0914   23.9407 C   0  0  0  0  0  0  0  0  0  0  0  0
   12.3546   -2.4203   24.6196 C   0  0  0  0  0  0  0  0  0  0  0  0
   13.3475   -0.4306   23.6795 N   0  0  0  0  0  0  0  0  0  0  0  0
   13.2779    0.7633   23.0755 C   0  0  0  0  0  0  0  0  0  0  0  0
   12.0951    1.3590   22.7087 C   0  0  0  0  0  0  0  0  0  0  0  0
  2  1  1  0
  3  2  2  0
  4  3  1  0
  5  4  2  0
  6  2  1  0
  7  5  1  0
  7  6  2  0
  7  8  1  0
  9  8  1  0
 10  9  2  0
 11  9  1  0
 12 11  1  0
 13 12  2  0
 14 13  1  0
 15 12  1  0
 16 15  1  0
 17 15  2  0
 18 17  1  0
 19 18  2  0
 19 13  1  0
M  END
>  <cid>  (83) 
EDJ-MED-49816e9b-2

>  <score>  (83) 
-13.7611

$$$$
x10371
     RDKit          3D

 22 24  0  0  0  0  0  0  0  0999 V2000
   12.5118   -2.0786   20.8912 N   0  0  0  0  0  0  0  0  0  0  0  0
    6.8169   -0.4405   18.7576 N   0  0  0  0  0  0  0  0  0  0  0  0
   10.5020   -1.7677   24.0749 C   0  0  0  0  0  0  0  0  0  0  0  0
    5.5766   -2.3858   20.5520 C   0  0  0  0  0  0  0  0  0  0  0  0
    4.8769   -1.6235   19.6401 O   0  0  0  0  0  0  0  0  0  0  0  0
    7.0143   -3.9337   22.3420 C   0  0  0  0  0  0  0  0  0  0  0  0
   11.5664   -1.5171   23.0311 C   0  0  0  0  0  0  0  0  0  0  0  0
   11.5874   -2.2378   21.8489 C   0  0  0  0  0  0  0  0  0  0  0  0
   13.4687   -1.1612   21.1063 C   0  0  0  0  0  0  0  0  0  0  0  0
   13.5393   -0.3914   22.2537 C   0  0  0  0  0  0  0  0  0  0  0  0
    5.1536   -3.6752   20.8353 C   0  0  0  0  0  0  0  0  0  0  0  0
    4.9994   -0.0380   17.8383 C   0  0  0  0  0  0  0  0  0  0  0  0
    5.8787   -4.4457   21.7334 C   0  0  0  0  0  0  0  0  0  0  0  0
    5.6322   -1.2861   18.4613 C   0  0  1  0  0  0  0  0  0  0  0  0
    6.3923    0.5598   17.9595 C   0  0  0  0  0  0  0  0  0  0  0  0
    9.3905   -2.6721   23.5791 C   0  0  0  0  0  0  0  0  0  0  0  0
    8.5006   -2.0563   22.7696 N   0  0  0  0  0  0  0  0  0  0  0  0
    9.3319   -3.8601   23.8912 O   0  0  0  0  0  0  0  0  0  0  0  0
    6.9737    1.5418   17.4933 O   0  0  0  0  0  0  0  0  0  0  0  0
    7.4191   -2.6328   22.0681 C   0  0  0  0  0  0  0  0  0  0  0  0
   12.5700   -0.5760   23.2239 C   0  0  0  0  0  0  0  0  0  0  0  0
    6.7071   -1.8593   21.1579 C   0  0  0  0  0  0  0  0  0  0  0  0
  5  4  1  0
  7  3  1  0
  8  7  1  0
  8  1  2  0
  9  1  1  0
 10  9  2  0
 11  4  2  0
 13 11  1  0
 13  6  2  0
 14 12  1  0
 14  5  1  1
 14  2  1  0
 15 12  1  0
 15  2  1  0
 16  3  1  0
 17 16  1  0
 18 16  2  0
 19 15  2  0
 20 17  1  0
 20  6  1  0
 21 10  1  0
 21  7  2  0
 22 20  2  0
 22  4  1  0
M  END
>  <cid>  (84) 
RAL-MED-2de63afb-1

>  <score>  (84) 
-15.0767

$$$$
x10322
     RDKit          3D

 23 25  0  0  0  0  0  0  0  0999 V2000
   10.6138    0.6687   22.2513 N   0  0  0  0  0  0  0  0  0  0  0  0
    7.1181    0.9690   18.2548 N   0  0  0  0  0  0  0  0  0  0  0  0
   13.4828   -2.2582   21.9301 N   0  0  0  0  0  0  0  0  0  0  0  0
    7.0477    0.8480   23.2199 C   0  0  0  0  0  0  0  0  0  0  0  0
    7.2140   -0.0802   21.0077 C   0  0  0  0  0  0  0  0  0  0  0  0
    6.4475   -0.5980   19.9856 O   0  0  0  0  0  0  0  0  0  0  0  0
   13.4643   -2.8016   23.1507 C   0  0  0  0  0  0  0  0  0  0  0  0
    8.4319    0.9553   23.2478 C   0  0  0  0  0  0  0  0  0  0  0  0
   13.2431   -0.1387   23.0174 C   0  0  0  0  0  0  0  0  0  0  0  0
   12.8333    1.3144   22.9246 C   0  0  0  0  0  0  0  0  0  0  0  0
   11.3364    1.5580   22.9667 C   0  0  0  0  0  0  0  0  0  0  0  0
    8.5932    0.0203   21.0374 C   0  0  0  0  0  0  0  0  0  0  0  0
    5.5126   -0.2886   17.8647 C   0  0  0  0  0  0  0  0  0  0  0  0
   13.3782   -0.9251   21.8878 C   0  0  0  0  0  0  0  0  0  0  0  0
    6.8451   -0.4220   18.6179 C   0  0  1  0  0  0  0  0  0  0  0  0
    6.0221    1.0917   17.4802 C   0  0  0  0  0  0  0  0  0  0  0  0
    6.2177    1.2780   24.4062 C   0  0  0  0  0  0  0  0  0  0  0  0
   13.3233   -2.1549   24.3130 N   0  0  0  0  0  0  0  0  0  0  0  0
   10.8451    2.4886   23.5980 O   0  0  0  0  0  0  0  0  0  0  0  0
    5.6299    2.0013   16.7499 O   0  0  0  0  0  0  0  0  0  0  0  0
   13.2092   -0.8252   24.2185 C   0  0  0  0  0  0  0  0  0  0  0  0
    9.2084    0.5451   22.1685 C   0  0  0  0  0  0  0  0  0  0  0  0
    6.4418    0.3278   22.0837 C   0  0  0  0  0  0  0  0  0  0  0  0
  6  5  1  0
  7  3  2  0
  8  4  2  0
  9 10  1  0
 11 10  1  0
 11  1  1  0
 12  5  1  0
 14  9  2  0
 14  3  1  0
 15  2  1  0
 15 13  1  0
 15  6  1  1
 16  2  1  0
 16 13  1  0
 17  4  1  0
 18  7  1  0
 19 11  2  0
 20 16  2  0
 21 18  2  0
 21  9  1  0
 22 12  2  0
 22  1  1  0
 22  8  1  0
 23  5  2  0
 23  4  1  0
M  END
>  <cid>  (85) 
RAL-MED-2de63afb-2

>  <score>  (85) 
-14.0237

$$$$
x10387
     RDKit          3D

 23 25  0  0  0  0  0  0  0  0999 V2000
    8.8921   -3.7887   22.9353 N   0  0  0  0  0  0  0  0  0  0  0  0
    6.2615   -1.5896   18.8983 N   0  0  0  0  0  0  0  0  0  0  0  0
   12.9309   -0.9901   21.5963 N   0  0  0  0  0  0  0  0  0  0  0  0
    7.1271   -5.2623   22.2051 C   0  0  0  0  0  0  0  0  0  0  0  0
    4.8978   -1.7773   19.3868 C   0  0  1  0  0  0  0  0  0  0  0  0
    4.8279   -2.1099   20.7901 O   0  0  0  0  0  0  0  0  0  0  0  0
   12.1092   -1.8949   22.1423 C   0  0  0  0  0  0  0  0  0  0  0  0
    7.6354   -3.9709   22.3107 C   0  0  0  0  0  0  0  0  0  0  0  0
   12.6561   -1.1622   24.2987 C   0  0  0  0  0  0  0  0  0  0  0  0
   11.9357   -2.0419   23.5096 C   0  0  0  0  0  0  0  0  0  0  0  0
   10.7917   -2.8517   24.0755 C   0  0  0  0  0  0  0  0  0  0  0  0
    5.6415   -3.1091   21.2821 C   0  0  0  0  0  0  0  0  0  0  0  0
    6.1290   -0.2617   18.7228 C   0  0  0  0  0  0  0  0  0  0  0  0
    6.8958   -2.8900   21.8387 C   0  0  0  0  0  0  0  0  0  0  0  0
    5.3970   -6.6892   21.5297 F   0  0  0  0  0  0  0  0  0  0  0  0
    4.7114   -0.2598   19.2802 C   0  0  0  0  0  0  0  0  0  0  0  0
    5.1137   -4.3870   21.1786 C   0  0  0  0  0  0  0  0  0  0  0  0
    5.8821   -5.4255   21.6489 C   0  0  0  0  0  0  0  0  0  0  0  0
   13.4907   -0.2442   23.8004 N   0  0  0  0  0  0  0  0  0  0  0  0
    8.9577   -1.5277   23.2599 O   0  0  0  0  0  0  0  0  0  0  0  0
    6.9017    0.5878   18.2808 O   0  0  0  0  0  0  0  0  0  0  0  0
   13.5879   -0.2198   22.4667 C   0  0  0  0  0  0  0  0  0  0  0  0
    9.4595   -2.6432   23.3826 C   0  0  0  0  0  0  0  0  0  0  0  0
  5  2  1  0
  5  6  1  1
  7  3  2  0
  8  1  1  0
  8  4  2  0
 10  7  1  0
 10  9  2  0
 10 11  1  0
 12  6  1  0
 13  2  1  0
 14  8  1  0
 14 12  2  0
 16  5  1  0
 16 13  1  0
 17 12  1  0
 18 17  2  0
 18 15  1  0
 18  4  1  0
 19  9  1  0
 21 13  2  0
 22  3  1  0
 22 19  2  0
 23 20  2  0
 23 11  1  0
 23  1  1  0
M  END
>  <cid>  (86) 
RAL-MED-2de63afb-14

>  <score>  (86) 
-13.4082

$$$$
x10800
     RDKit          3D

 23 25  0  0  0  0  0  0  0  0999 V2000
    6.8231   -1.3147   20.2102 N   0  0  0  0  0  0  0  0  0  0  0  0
    8.2393   -2.2535   21.7018 N   0  0  0  0  0  0  0  0  0  0  0  0
   13.6142   -1.9039   25.4284 C   0  0  0  0  0  0  0  0  0  0  0  0
    6.4764   -0.5670   19.0709 C   0  0  0  0  0  0  0  0  0  0  0  0
    7.1493   -2.6485   24.9880 O   0  0  0  0  0  0  0  0  0  0  0  0
   11.6360   -2.2025   23.4829 C   0  0  0  0  0  0  0  0  0  0  0  0
    5.1592   -0.6235   18.6363 C   0  0  0  0  0  0  0  0  0  0  0  0
    9.1237   -2.4046   22.8649 C   0  0  0  0  0  0  0  0  0  0  0  0
    7.4162   -1.3666   24.3938 C   0  0  0  0  0  0  0  0  0  0  0  0
    7.2881    0.4393   18.5542 C   0  0  0  0  0  0  0  0  0  0  0  0
    5.5694    1.3127   17.3302 C   0  0  0  0  0  0  0  0  0  0  0  0
   12.9410   -3.0981   25.3078 C   0  0  0  0  0  0  0  0  0  0  0  0
   12.3342   -1.0080   23.6078 C   0  0  0  0  0  0  0  0  0  0  0  0
    8.8377   -1.2705   23.8643 C   0  0  0  0  0  0  0  0  0  0  0  0
   11.9561   -3.2480   24.3418 C   0  0  0  0  0  0  0  0  0  0  0  0
   13.3110   -0.8583   24.5791 C   0  0  0  0  0  0  0  0  0  0  0  0
    8.7801   -3.7475   23.5285 C   0  0  0  0  0  0  0  0  0  0  0  0
    7.9019   -1.1331   21.0319 C   0  0  0  0  0  0  0  0  0  0  0  0
    6.8554    1.3670   17.6976 N   0  0  0  0  0  0  0  0  0  0  0  0
    8.4594   -0.0431   21.1926 O   0  0  0  0  0  0  0  0  0  0  0  0
   10.5977   -2.3794   22.4011 C   0  0  0  0  0  0  0  0  0  0  0  0
    4.6929    0.3421   17.7649 C   0  0  0  0  0  0  0  0  0  0  0  0
    7.3567   -3.7257   24.0536 C   0  0  0  0  0  0  0  0  0  0  0  0
  4  1  1  0
  7  4  2  0
  8  2  1  0
  9  5  1  0
 10  4  1  0
 12  3  2  0
 13  6  1  0
 14  9  1  0
 14  8  1  0
 15 12  1  0
 15  6  2  0
 16 13  2  0
 16  3  1  0
 17  8  1  0
 18  1  1  0
 18  2  1  0
 19 11  1  0
 19 10  2  0
 18 20  2  0
  8 21  1  0
  6 21  1  0
 22 11  2  0
 22  7  1  0
 23 17  1  0
 23  5  1  0
M  END
>  <cid>  (87) 
NAU-LAT-445f63e5-6

>  <score>  (87) 
-15.6886

$$$$
x3303
     RDKit          3D

 25 28  0  0  0  0  0  0  0  0999 V2000
    9.2252   -2.6062   21.8669 O   0  0  0  0  0  0  0  0  0  0  0  0
   10.2049   -2.2242   22.5113 C   0  0  0  0  0  0  0  0  0  0  0  0
   10.7289   -0.8972   22.4524 C   0  0  0  0  0  0  0  0  0  0  0  0
   10.8229   -3.0719   23.3900 N   0  0  0  0  0  0  0  0  0  0  0  0
   11.8805   -2.7175   24.2129 C   0  0  0  0  0  0  0  0  0  0  0  0
   12.4553   -3.6564   25.0665 C   0  0  0  0  0  0  0  0  0  0  0  0
   13.5362   -3.2964   25.8520 C   0  0  0  0  0  0  0  0  0  0  0  0
   14.0476   -2.0183   25.7965 C   0  0  0  0  0  0  0  0  0  0  0  0
   13.4787   -1.0680   24.9642 C   0  0  0  0  0  0  0  0  0  0  0  0
   12.3900   -1.4035   24.1606 C   0  0  0  0  0  0  0  0  0  0  0  0
   11.7609   -0.4698   23.2280 C   0  0  0  0  0  0  0  0  0  0  0  0
   12.2670    0.9378   23.0445 C   0  0  0  0  0  0  0  0  0  0  0  0
   13.4777    1.1307   23.0858 O   0  0  0  0  0  0  0  0  0  0  0  0
   11.3954    1.9389   22.7868 N   0  0  0  0  0  0  0  0  0  0  0  0
   11.8910    3.3120   22.6040 C   0  0  0  0  0  0  0  0  0  0  0  0
   11.0755    4.2889   23.4331 C   0  0  0  0  0  0  0  0  0  0  0  0
    9.6456    4.1385   23.1379 N   0  0  0  0  0  0  0  0  0  0  0  0
    9.1269    2.7756   23.3058 C   0  0  0  0  0  0  0  0  0  0  0  0
    9.9569    1.7708   22.5093 C   0  0  0  0  0  0  0  0  0  0  0  0
    8.9042    5.1687   22.5572 C   0  0  0  0  0  0  0  0  0  0  0  0
    9.3823    6.4844   22.5785 C   0  0  0  0  0  0  0  0  0  0  0  0
    8.6486    7.4997   21.9797 C   0  0  0  0  0  0  0  0  0  0  0  0
    7.4459    7.2237   21.3651 C   0  0  0  0  0  0  0  0  0  0  0  0
    6.9669    5.9284   21.3401 C   0  0  0  0  0  0  0  0  0  0  0  0
    7.6819    4.8991   21.9327 C   0  0  0  0  0  0  0  0  0  0  0  0
  2  1  2  0
  3  2  1  0
  4  2  1  0
  5  4  1  0
  6  5  2  0
  7  6  1  0
  8  7  2  0
  9  8  1  0
 10  9  2  0
 10  5  1  0
 11 10  1  0
 11  3  2  0
 11 12  1  0
 13 12  2  0
 14 12  1  0
 15 14  1  0
 16 15  1  0
 17 16  1  0
 18 17  1  0
 19 14  1  0
 19 18  1  0
 20 17  1  0
 21 20  2  0
 22 21  1  0
 23 22  2  0
 24 23  1  0
 25 24  2  0
 25 20  1  0
M  END
>  <cid>  (88) 
EDJ-MED-78f964c8-1

>  <score>  (88) 
-21.4193

$$$$
x11313
     RDKit          3D

 26 28  0  0  0  0  0  0  0  0999 V2000
    8.2070    7.7313   21.9509 O   0  0  0  0  0  0  0  0  0  0  0  0
    9.0503    6.8895   22.2731 C   0  0  0  0  0  0  0  0  0  0  0  0
    8.7362    5.5561   22.6340 C   0  0  0  0  0  0  0  0  0  0  0  0
   10.3828    7.1866   22.1959 N   0  0  0  0  0  0  0  0  0  0  0  0
   11.4088    6.2569   22.3631 C   0  0  0  0  0  0  0  0  0  0  0  0
   11.0965    4.9065   22.6539 C   0  0  0  0  0  0  0  0  0  0  0  0
   12.1478    3.9654   22.7414 C   0  0  0  0  0  0  0  0  0  0  0  0
   11.9142    2.4852   22.8989 C   0  0  0  0  0  0  0  0  0  0  0  0
   13.4610    4.4108   22.5956 C   0  0  0  0  0  0  0  0  0  0  0  0
   13.7524    5.7370   22.3496 C   0  0  0  0  0  0  0  0  0  0  0  0
   12.7341    6.6628   22.2225 C   0  0  0  0  0  0  0  0  0  0  0  0
    9.6576    4.5775   22.8427 C   0  0  0  0  0  0  0  0  0  0  0  0
    9.1427    3.2686   23.3569 C   0  0  0  0  0  0  0  0  0  0  0  0
    9.6088    2.7472   24.3691 O   0  0  0  0  0  0  0  0  0  0  0  0
    8.1475    2.7098   22.6708 N   0  0  0  0  0  0  0  0  0  0  0  0
    7.6942    1.3521   22.9390 C   0  0  0  0  0  0  0  0  0  0  0  0
    7.1129    0.7189   21.7102 C   0  0  0  0  0  0  0  0  0  0  0  0
    6.6755   -0.5988   22.0751 O   0  0  0  0  0  0  0  0  0  0  0  0
    6.1209   -1.4057   21.1149 C   0  0  0  0  0  0  0  0  0  0  0  0
    5.8154   -2.7091   21.5460 C   0  0  0  0  0  0  0  0  0  0  0  0
    6.1096   -2.9686   22.8573 O   0  0  0  0  0  0  0  0  0  0  0  0
    6.7254   -4.2173   23.1713 C   0  0  0  0  0  0  0  0  0  0  0  0
    5.8511   -1.0274   19.8063 C   0  0  0  0  0  0  0  0  0  0  0  0
    5.2795   -1.9440   18.9365 C   0  0  0  0  0  0  0  0  0  0  0  0
    4.9703   -3.2206   19.3628 C   0  0  0  0  0  0  0  0  0  0  0  0
    5.2405   -3.6142   20.6619 C   0  0  0  0  0  0  0  0  0  0  0  0
  2  1  2  0
  3  2  1  0
  4  2  1  0
  5  4  1  0
  6  5  2  0
  7  6  1  0
  7  8  1  0
  9  7  2  0
 10  9  1  0
 11 10  2  0
 11  5  1  0
 12  6  1  0
 12  3  2  0
 12 13  1  0
 14 13  2  0
 15 13  1  0
 16 15  1  0
 17 16  1  0
 18 17  1  0
 19 18  1  0
 20 19  2  0
 21 20  1  0
 22 21  1  0
 23 19  1  0
 24 23  2  0
 25 24  1  0
 26 25  2  0
 26 20  1  0
M  END
>  <cid>  (89) 
EDJ-MED-6af13d92-1

>  <score>  (89) 
-13.2391

$$$$
x11294
     RDKit          3D

 27 29  0  0  0  0  0  0  0  0999 V2000
    6.6302    1.8088   19.0400 O   0  0  0  0  0  0  0  0  0  0  0  0
    6.8800    0.7355   19.5947 C   0  0  0  0  0  0  0  0  0  0  0  0
    8.0830    0.4770   20.3013 C   0  0  0  0  0  0  0  0  0  0  0  0
    5.9343   -0.2559   19.6396 N   0  0  0  0  0  0  0  0  0  0  0  0
    6.0539   -1.4210   20.3864 C   0  0  0  0  0  0  0  0  0  0  0  0
    7.2201   -1.6281   21.1565 C   0  0  0  0  0  0  0  0  0  0  0  0
    7.2593   -2.7511   22.0081 C   0  0  0  0  0  0  0  0  0  0  0  0
    8.3732   -2.8522   22.7975 O   0  0  0  0  0  0  0  0  0  0  0  0
    8.2331   -2.5848   24.1918 C   0  0  0  0  0  0  0  0  0  0  0  0
    6.2032   -3.6537   22.0350 C   0  0  0  0  0  0  0  0  0  0  0  0
    5.0973   -3.4533   21.2279 C   0  0  0  0  0  0  0  0  0  0  0  0
    5.0108   -2.3403   20.4120 C   0  0  0  0  0  0  0  0  0  0  0  0
    8.2963   -0.6326   21.0502 C   0  0  0  0  0  0  0  0  0  0  0  0
    9.6556   -0.8209   21.6360 C   0  0  0  0  0  0  0  0  0  0  0  0
   10.2244   -1.9093   21.5886 O   0  0  0  0  0  0  0  0  0  0  0  0
   10.1945    0.2444   22.2335 N   0  0  0  0  0  0  0  0  0  0  0  0
   11.4004    0.1589   23.0415 C   0  0  0  0  0  0  0  0  0  0  0  0
   12.2781    1.3611   22.8707 C   0  0  0  0  0  0  0  0  0  0  0  0
   11.5693    2.4981   23.3891 O   0  0  0  0  0  0  0  0  0  0  0  0
   12.1161    3.7469   23.2212 C   0  0  0  0  0  0  0  0  0  0  0  0
   11.4953    4.7828   23.9473 C   0  0  0  0  0  0  0  0  0  0  0  0
   10.4359    4.3961   24.7242 O   0  0  0  0  0  0  0  0  0  0  0  0
   10.2157    5.0908   25.9535 C   0  0  0  0  0  0  0  0  0  0  0  0
   13.1603    4.0392   22.3555 C   0  0  0  0  0  0  0  0  0  0  0  0
   13.5617    5.3543   22.1845 C   0  0  0  0  0  0  0  0  0  0  0  0
   12.9531    6.3714   22.8942 C   0  0  0  0  0  0  0  0  0  0  0  0
   11.9309    6.0929   23.7891 C   0  0  0  0  0  0  0  0  0  0  0  0
  2  1  2  0
  3  2  1  0
  4  2  1  0
  5  4  1  0
  6  5  2  0
  7  6  1  0
  8  7  1  0
  9  8  1  0
 10  7  2  0
 11 10  1  0
 12 11  2  0
 12  5  1  0
 13  6  1  0
 13  3  2  0
 13 14  1  0
 15 14  2  0
 16 14  1  0
 17 16  1  0
 18 17  1  0
 19 18  1  0
 20 19  1  0
 21 20  2  0
 21 22  1  0
 23 22  1  0
 24 20  1  0
 25 24  2  0
 26 25  1  0
 27 26  2  0
 27 21  1  0
M  END
>  <cid>  (90) 
EDJ-MED-6af13d92-3

>  <score>  (90) 
-13.3524

$$$$
x11186
     RDKit          3D

 21 24  0  0  0  0  0  0  0  0999 V2000
    9.9634    0.4906   23.7792 O   0  0  0  0  0  0  0  0  0  0  0  0
   10.9544    0.7678   23.1132 C   0  0  0  0  0  0  0  0  0  0  0  0
   11.8199   -0.3008   22.4425 C   0  0  2  0  0  0  0  0  0  0  0  0
   10.9371   -1.1891   21.5718 C   0  0  0  0  0  0  0  0  0  0  0  0
   10.6791   -2.3796   22.3659 O   0  0  0  0  0  0  0  0  0  0  0  0
   12.3324   -1.2926   23.4648 C   0  0  0  0  0  0  0  0  0  0  0  0
   11.5331   -2.4160   23.4438 C   0  0  0  0  0  0  0  0  0  0  0  0
   11.6802   -3.4428   24.3612 C   0  0  0  0  0  0  0  0  0  0  0  0
   12.6841   -3.3400   25.3080 C   0  0  0  0  0  0  0  0  0  0  0  0
   13.3553   -1.2046   24.3972 C   0  0  0  0  0  0  0  0  0  0  0  0
   13.5240   -2.2383   25.2939 C   0  0  0  0  0  0  0  0  0  0  0  0
   14.8883   -2.2028   26.3621 Cl  0  0  0  0  0  0  0  0  0  0  0  0
   11.3591    2.0468   22.8974 N   0  0  0  0  0  0  0  0  0  0  0  0
   10.7761    3.1722   23.4055 C   0  0  0  0  0  0  0  0  0  0  0  0
   11.1633    4.4344   23.0234 N   0  0  0  0  0  0  0  0  0  0  0  0
   10.3287    5.2643   23.7261 C   0  0  0  0  0  0  0  0  0  0  0  0
    9.5023    4.5841   24.4666 N   0  0  0  0  0  0  0  0  0  0  0  0
    9.7815    3.2417   24.2723 N   0  0  0  0  0  0  0  0  0  0  0  0
   12.2000    4.8037   22.0335 C   0  0  0  0  0  0  0  0  0  0  0  0
   12.9694    6.0610   22.2492 C   0  0  0  0  0  0  0  0  0  0  0  0
   13.6300    4.7317   22.4456 C   0  0  0  0  0  0  0  0  0  0  0  0
  2  1  2  0
  3  2  1  1
  4  3  1  0
  5  4  1  0
  6  3  1  0
  7  6  2  0
  7  5  1  0
  7  8  1  0
  9  8  2  0
  6 10  1  0
 11 10  2  0
 11  9  1  0
 11 12  1  0
 13  2  1  0
 14 13  1  0
 15 14  1  0
 16 15  1  0
 17 16  2  0
 18 17  1  0
 18 14  2  0
 19 15  1  0
 20 19  1  0
 21 20  1  0
 21 19  1  0
M  END
>  <cid>  (91) 
MIC-UNK-deda7a44-5

>  <score>  (91) 
-26.1744

$$$$
