
     RDKit          3D

 46 48  0  0  0  0  0  0  0  0999 V2000
   36.4260  -40.3530   78.2800 C   0  0  0  0  0  0  0  0  0  0  0  0
   36.0680  -41.6680   77.6110 C   0  0  0  0  0  0  0  0  0  0  0  0
   36.3360  -42.7430   78.1620 O   0  0  0  0  0  0  0  0  0  0  0  0
   35.4540  -41.6200   76.3830 N   0  0  0  0  0  0  0  0  0  0  0  0
   34.9890  -40.4290   75.6810 C   0  0  0  0  0  0  0  0  0  0  0  0
   34.7910  -42.8050   75.8910 C   0  0  1  0  0  0  0  0  0  0  0  0
   34.2530  -40.9630   74.4670 C   0  0  0  0  0  0  0  0  0  0  0  0
   33.6660  -42.2640   74.9930 C   0  0  0  0  0  0  0  0  0  0  0  0
   35.7200  -43.6990   75.1320 C   0  0  0  0  0  0  0  0  0  0  0  0
   35.2010  -44.8190   74.5000 C   0  0  0  0  0  0  0  0  0  0  0  0
   37.0850  -43.4320   75.0290 C   0  0  0  0  0  0  0  0  0  0  0  0
   36.0050  -45.6700   73.7730 C   0  0  0  0  0  0  0  0  0  0  0  0
   37.9090  -44.2850   74.2910 C   0  0  0  0  0  0  0  0  0  0  0  0
   37.3630  -45.4110   73.6610 C   0  0  0  0  0  0  0  0  0  0  0  0
   39.3620  -43.9800   74.1760 C   0  0  0  0  0  0  0  0  0  0  0  0
   39.6440  -42.7230   73.3960 C   0  0  0  0  0  0  0  0  0  0  0  0
   39.0430  -42.4990   72.3440 O   0  0  0  0  0  0  0  0  0  0  0  0
   40.5930  -41.9200   73.9850 N   0  0  0  0  0  0  0  0  0  0  0  0
   41.0470  -40.6990   73.4730 C   0  0  0  0  0  0  0  0  0  0  0  0
   41.6830  -39.8080   74.3560 C   0  0  0  0  0  0  0  0  0  0  0  0
   40.8840  -40.3480   72.1430 C   0  0  0  0  0  0  0  0  0  0  0  0
   42.1510  -38.5740   73.8890 C   0  0  0  0  0  0  0  0  0  0  0  0
   41.3390  -39.1260   71.6830 C   0  0  0  0  0  0  0  0  0  0  0  0
   41.9740  -38.2400   72.5470 C   0  0  0  0  0  0  0  0  0  0  0  0
   41.0920  -38.7380   70.0240 Cl  0  0  0  0  0  0  0  0  0  0  0  0
   36.4300  -40.5130   79.3650 H   0  0  0  0  0  0  0  0  0  0  0  0
   35.6430  -39.6160   78.0650 H   0  0  0  0  0  0  0  0  0  0  0  0
   34.3100  -39.8930   76.3490 H   0  0  0  0  0  0  0  0  0  0  0  0
   35.8050  -39.7710   75.3960 H   0  0  0  0  0  0  0  0  0  0  0  0
   34.3550  -43.3260   76.7520 H   0  0  0  0  0  0  0  0  0  0  0  0
   33.4970  -40.2710   74.0910 H   0  0  0  0  0  0  0  0  0  0  0  0
   34.9660  -41.1670   73.6570 H   0  0  0  0  0  0  0  0  0  0  0  0
   32.7360  -42.1030   75.5540 H   0  0  0  0  0  0  0  0  0  0  0  0
   33.4250  -42.9310   74.1510 H   0  0  0  0  0  0  0  0  0  0  0  0
   34.1390  -45.0440   74.5690 H   0  0  0  0  0  0  0  0  0  0  0  0
   37.5080  -42.5510   75.5210 H   0  0  0  0  0  0  0  0  0  0  0  0
   35.5590  -46.5260   73.2960 H   0  0  0  0  0  0  0  0  0  0  0  0
   37.9920  -46.0850   73.0800 H   0  0  0  0  0  0  0  0  0  0  0  0
   39.7970  -43.8960   75.1780 H   0  0  0  0  0  0  0  0  0  0  0  0
   39.8810  -44.7950   73.6760 H   0  0  0  0  0  0  0  0  0  0  0  0
   41.1200  -42.3230   74.7670 H   0  0  0  0  0  0  0  0  0  0  0  0
   41.8190  -40.0650   75.4030 H   0  0  0  0  0  0  0  0  0  0  0  0
   40.3950  -41.0140   71.4380 H   0  0  0  0  0  0  0  0  0  0  0  0
   42.6490  -37.8800   74.5700 H   0  0  0  0  0  0  0  0  0  0  0  0
   42.3280  -37.2960   72.1840 H   0  0  0  0  0  0  0  0  0  0  0  0
   37.8130  -39.8300   77.8370 R   0  0  0  0  0  0  0  0  0  0  0  0
  1  2  1  0
  2  3  2  0
  2  4  1  0
  4  5  1  0
  4  6  1  0
  5  7  1  0
  6  8  1  0
  7  8  1  0
  6  9  1  0
  9 10  2  0
  9 11  1  0
 10 12  1  0
 11 13  2  0
 12 14  2  0
 13 14  1  0
 13 15  1  0
 15 16  1  0
 16 17  2  0
 16 18  1  0
 18 19  1  0
 19 20  2  0
 19 21  1  0
 20 22  1  0
 21 23  2  0
 22 24  2  0
 23 24  1  0
 23 25  1  0
  1 26  1  0
  1 27  1  0
  5 28  1  0
  5 29  1  0
  6 30  1  1
  7 31  1  0
  7 32  1  0
  8 33  1  0
  8 34  1  0
 10 35  1  0
 11 36  1  0
 12 37  1  0
 14 38  1  0
 15 39  1  0
 15 40  1  0
 18 41  1  0
 20 42  1  0
 21 43  1  0
 22 44  1  0
 24 45  1  0
  1 46  1  0
M  END
